<?xml version="1.0" encoding="UTF-8"?>

<!-- generated on Wed 19 Feb 2020 11:27:14 PM CET by Eclipse SUMO netedit Version v1_3_1+0768-b8581b909d
<configuration xmlns:xsi="http://www.w3.org/2001/XMLSchema-instance" xsi:noNamespaceSchemaLocation="http://sumo.dlr.de/xsd/netconvertConfiguration.xsd">

    <input>
        <sumo-net-file value="/home/patrick/School/Thesis/Data%20Analysis/SumoNetVis/Sample/test.net.xml"/>
    </input>

    <output>
        <output-file value="/home/patrick/School/Thesis/Data%20Analysis/SumoNetVis/Sample/test.net.xml"/>
    </output>

    <processing>
        <geometry.max-grade.fix value="false"/>
        <offset.disable-normalization value="true"/>
        <lefthand value="false"/>
    </processing>

    <junctions>
        <no-turnarounds value="true"/>
        <junctions.corner-detail value="5"/>
        <junctions.limit-turn-speed value="5.5"/>
        <rectangular-lane-cut value="false"/>
    </junctions>

    <pedestrian>
        <walkingareas value="false"/>
    </pedestrian>

</configuration>
-->

<net version="1.3" junctionCornerDetail="5" limitTurnSpeed="5.50" xmlns:xsi="http://www.w3.org/2001/XMLSchema-instance" xsi:noNamespaceSchemaLocation="http://sumo.dlr.de/xsd/net_file.xsd">

    <location netOffset="0.00,0.00" convBoundary="-210.20,-170.57,438.30,63.61" origBoundary="-10000000000.00,-10000000000.00,10000000000.00,10000000000.00" projParameter="!"/>

    <edge id=":gneJ0_0" function="internal">
        <lane id=":gneJ0_0_0" index="0" speed="13.89" length="16.20" shape="-28.92,62.42 -45.09,62.39"/>
        <lane id=":gneJ0_0_1" index="1" speed="13.89" length="16.20" shape="-28.88,59.22 -45.12,59.19"/>
    </edge>
    <edge id=":gneJ0_2" function="internal">
        <lane id=":gneJ0_2_0" index="0" speed="8.32" length="16.00" shape="-28.88,59.22 -33.30,58.54 -36.38,56.65 -38.10,53.53 -38.46,49.19"/>
    </edge>
    <edge id=":gneJ0_3" function="internal">
        <lane id=":gneJ0_3_0" index="0" speed="6.12" length="8.17" shape="-35.27,49.39 -34.94,50.86 -33.76,51.92 -31.71,52.57 -28.80,52.82"/>
    </edge>
    <edge id=":gneJ0_4" function="internal">
        <lane id=":gneJ0_4_0" index="0" speed="8.59" length="15.60" shape="-35.27,49.39 -36.11,53.64 -38.04,56.69 -41.04,58.54 -45.12,59.19"/>
    </edge>
    <edge id=":gneJ0_5" function="internal">
        <lane id=":gneJ0_5_0" index="0" allow="bicycle" speed="5.51" length="5.84" width="1.50" shape="-45.19,51.94 -43.34,51.74 -41.99,51.19 -41.15,50.29 -40.81,49.04"/>
    </edge>
    <edge id=":gneJ0_6" function="internal">
        <lane id=":gneJ0_6_0" index="0" speed="6.46" length="8.38" shape="-45.18,52.79 -42.33,52.54 -40.25,51.86 -38.97,50.74 -38.46,49.19"/>
    </edge>
    <edge id=":gneJ0_7" function="internal">
        <lane id=":gneJ0_7_0" index="0" speed="13.89" length="16.31" shape="-45.15,55.99 -28.84,56.02"/>
    </edge>
    <edge id=":gneJ1_0" function="internal">
        <lane id=":gneJ1_0_0" index="0" speed="13.89" length="16.32" shape="84.42,64.01 68.12,63.70"/>
        <lane id=":gneJ1_0_1" index="1" speed="13.89" length="16.32" shape="84.50,60.81 68.17,60.50"/>
    </edge>
    <edge id=":gneJ1_2" function="internal">
        <lane id=":gneJ1_2_0" index="0" speed="8.31" length="16.07" shape="84.50,60.81 80.06,60.08 77.00,58.13 75.33,54.98 75.04,50.61"/>
    </edge>
    <edge id=":gneJ1_3" function="internal">
        <lane id=":gneJ1_3_0" index="0" speed="6.12" length="8.19" shape="78.23,50.87 78.53,52.36 79.70,53.44 81.74,54.13 84.65,54.41"/>
    </edge>
    <edge id=":gneJ1_4" function="internal">
        <lane id=":gneJ1_4_0" index="0" speed="8.59" length="15.66" shape="78.23,50.87 77.31,55.13 75.32,58.15 72.27,59.94 68.17,60.50"/>
    </edge>
    <edge id=":gneJ1_5" function="internal">
        <lane id=":gneJ1_5_0" index="0" allow="bicycle" speed="5.51" length="5.86" width="1.50" shape="68.26,53.25 70.12,53.09 71.47,52.57 72.33,51.68 72.70,50.42"/>
    </edge>
    <edge id=":gneJ1_6" function="internal">
        <lane id=":gneJ1_6_0" index="0" speed="6.45" length="8.41" shape="68.25,54.10 71.11,53.91 73.20,53.27 74.51,52.17 75.04,50.61"/>
    </edge>
    <edge id=":gneJ1_7" function="internal">
        <lane id=":gneJ1_7_0" index="0" speed="13.89" length="16.37" shape="68.21,57.30 84.58,57.61"/>
    </edge>
    <edge id=":gneJ10_0" function="internal">
        <lane id=":gneJ10_0_0" index="0" allow="pedestrian" speed="4.83" length="4.68" width="2.00" shape="198.11,-37.57 197.04,-37.35 196.25,-36.73 195.75,-35.70 195.53,-34.28"/>
    </edge>
    <edge id=":gneJ10_1" function="internal">
        <lane id=":gneJ10_1_0" index="0" allow="bicycle" speed="5.88" length="7.37" width="1.50" shape="198.08,-39.32 196.28,-38.98 194.97,-38.04 194.13,-36.50 193.78,-34.36"/>
    </edge>
    <edge id=":gneJ10_2" function="internal">
        <lane id=":gneJ10_2_0" index="0" allow="bicycle" speed="13.89" length="16.41" width="1.50" shape="198.08,-39.32 181.67,-39.07"/>
    </edge>
    <edge id=":gneJ10_3" function="internal">
        <lane id=":gneJ10_3_0" index="0" speed="7.27" length="3.55" shape="198.04,-41.67 195.27,-41.18 194.66,-40.76"/>
    </edge>
    <edge id=":gneJ10_4" function="internal">
        <lane id=":gneJ10_4_0" index="0" speed="13.89" length="16.40" shape="198.04,-41.67 181.64,-41.42"/>
    </edge>
    <edge id=":gneJ10_15" function="internal">
        <lane id=":gneJ10_15_0" index="0" speed="7.27" length="7.44" shape="194.66,-40.76 193.25,-39.81 191.97,-37.58 191.43,-34.47"/>
    </edge>
    <edge id=":gneJ10_5" function="internal">
        <lane id=":gneJ10_5_0" index="0" allow="pedestrian" speed="13.89" length="16.38" width="2.00" shape="181.55,-48.72 197.92,-48.96"/>
        <lane id=":gneJ10_5_1" index="1" allow="bicycle" speed="13.89" length="16.38" width="1.50" shape="181.57,-46.97 197.95,-47.22"/>
    </edge>
    <edge id=":gneJ10_7" function="internal">
        <lane id=":gneJ10_7_0" index="0" allow="bicycle" speed="9.15" length="10.98" width="1.50" shape="181.57,-46.97 187.13,-46.24 191.01,-43.90 191.43,-43.17"/>
    </edge>
    <edge id=":gneJ10_8" function="internal">
        <lane id=":gneJ10_8_0" index="0" speed="13.89" length="16.39" shape="181.60,-44.62 197.99,-44.87"/>
    </edge>
    <edge id=":gneJ10_9" function="internal">
        <lane id=":gneJ10_9_0" index="0" speed="8.37" length="6.31" shape="181.60,-44.62 186.08,-44.03 187.61,-43.11"/>
    </edge>
    <edge id=":gneJ10_16" function="internal">
        <lane id=":gneJ10_16_0" index="0" allow="bicycle" speed="9.15" length="9.30" width="1.50" shape="191.43,-43.17 193.23,-39.94 193.78,-34.36"/>
    </edge>
    <edge id=":gneJ10_17" function="internal">
        <lane id=":gneJ10_17_0" index="0" speed="8.37" length="10.03" shape="187.61,-43.11 189.21,-42.15 190.99,-38.96 191.43,-34.47"/>
    </edge>
    <edge id=":gneJ10_10" function="internal">
        <lane id=":gneJ10_10_0" index="0" allow="pedestrian" speed="4.37" length="4.06" width="2.00" shape="184.14,-34.79 184.03,-35.91 183.59,-36.70 182.81,-37.17 181.70,-37.32"/>
    </edge>
    <edge id=":gneJ10_11" function="internal">
        <lane id=":gneJ10_11_0" index="0" allow="bicycle" speed="5.50" length="7.00" width="1.50" shape="185.89,-34.72 185.70,-36.64 184.93,-38.01 183.59,-38.82 181.67,-39.07"/>
    </edge>
    <edge id=":gneJ10_12" function="internal">
        <lane id=":gneJ10_12_0" index="0" allow="bicycle" speed="9.39" length="19.54" width="1.50" shape="185.89,-34.72 186.85,-40.11 189.18,-43.99 192.88,-46.36 197.95,-47.22"/>
    </edge>
    <edge id=":gneJ10_13" function="internal">
        <lane id=":gneJ10_13_0" index="0" speed="6.96" length="10.95" shape="188.24,-34.61 187.94,-37.62 186.74,-39.76 184.64,-41.03 181.64,-41.42"/>
    </edge>
    <edge id=":gneJ10_14" function="internal">
        <lane id=":gneJ10_14_0" index="0" speed="8.64" length="15.92" shape="188.24,-34.61 189.02,-39.04 190.90,-42.22 193.89,-44.16 197.99,-44.87"/>
    </edge>
    <edge id=":gneJ12_0" function="internal">
        <lane id=":gneJ12_0_0" index="0" allow="pedestrian" speed="3.09" length="1.59" width="2.00" shape="-22.99,-86.18 -23.42,-86.13 -23.73,-85.95 -23.93,-85.65 -24.00,-85.22"/>
    </edge>
    <edge id=":gneJ12_1" function="internal">
        <lane id=":gneJ12_1_0" index="0" allow="bicycle" speed="4.55" length="4.36" width="1.50" shape="-22.96,-87.93 -24.14,-87.79 -25.00,-87.30 -25.54,-86.47 -25.75,-85.30"/>
    </edge>
    <edge id=":gneJ12_2" function="internal">
        <lane id=":gneJ12_2_0" index="0" speed="6.24" length="8.09" shape="-22.91,-90.28 -25.11,-90.01 -26.70,-89.10 -27.70,-87.56 -28.10,-85.39"/>
    </edge>
    <edge id=":gneJ12_3" function="internal">
        <lane id=":gneJ12_3_0" index="0" allow="pedestrian" speed="9.32" length="19.67" width="2.00" shape="-35.39,-85.69 -34.42,-90.98 -31.99,-94.72 -28.11,-96.92 -22.78,-97.58"/>
    </edge>
    <edge id=":gneJ12_4" function="internal">
        <lane id=":gneJ12_4_0" index="0" allow="bicycle" speed="8.62" length="16.89" width="1.50" shape="-33.65,-85.62 -32.81,-90.16 -30.72,-93.37 -27.39,-95.26 -22.81,-95.83"/>
    </edge>
    <edge id=":gneJ12_5" function="internal">
        <lane id=":gneJ12_5_0" index="0" speed="7.79" length="13.16" shape="-31.30,-85.52 -30.65,-89.06 -29.02,-91.57 -26.42,-93.04 -22.85,-93.48"/>
    </edge>
    <edge id=":gneJ13_0" function="internal">
        <lane id=":gneJ13_0_0" index="0" allow="pedestrian" speed="6.68" length="6.49" width="2.00" shape="97.29,-86.67 96.40,-86.01 95.72,-84.83 95.24,-83.12 94.96,-80.89"/>
    </edge>
    <edge id=":gneJ13_1" function="internal">
        <lane id=":gneJ13_1_0" index="0" allow="bicycle" speed="7.51" length="8.43" width="1.50" shape="96.63,-88.30 95.30,-87.39 94.28,-85.87 93.59,-83.75 93.22,-81.01"/>
    </edge>
    <edge id=":gneJ13_2" function="internal">
        <lane id=":gneJ13_2_0" index="0" allow="bicycle" speed="13.89" length="15.74" width="1.50" shape="96.63,-88.30 92.28,-86.70 89.15,-86.02 85.92,-85.92 81.25,-86.04"/>
    </edge>
    <edge id=":gneJ13_3" function="internal">
        <lane id=":gneJ13_3_0" index="0" speed="8.69" length="2.95" shape="95.75,-90.48 93.82,-89.24 93.43,-88.72"/>
    </edge>
    <edge id=":gneJ13_4" function="internal">
        <lane id=":gneJ13_4_0" index="0" speed="13.89" length="14.80" shape="95.75,-90.48 91.66,-88.98 88.72,-88.36 85.68,-88.27 81.29,-88.39"/>
    </edge>
    <edge id=":gneJ13_15" function="internal">
        <lane id=":gneJ13_15_0" index="0" speed="8.69" length="8.11" shape="93.43,-88.72 92.36,-87.27 91.38,-84.59 90.87,-81.18"/>
    </edge>
    <edge id=":gneJ13_5" function="internal">
        <lane id=":gneJ13_5_0" index="0" allow="pedestrian" speed="13.89" length="12.21" width="2.00" shape="81.42,-95.68 84.94,-95.58 87.38,-95.60 89.75,-96.06 93.03,-97.24"/>
        <lane id=":gneJ13_5_1" index="1" allow="bicycle" speed="13.89" length="12.21" width="1.50" shape="81.39,-93.94 85.12,-93.82 87.70,-93.87 90.21,-94.36 93.68,-95.62"/>
    </edge>
    <edge id=":gneJ13_7" function="internal">
        <lane id=":gneJ13_7_0" index="0" allow="bicycle" speed="9.15" length="10.29" width="1.50" shape="81.39,-93.94 86.90,-93.04 90.71,-90.59 90.79,-90.43"/>
    </edge>
    <edge id=":gneJ13_8" function="internal">
        <lane id=":gneJ13_8_0" index="0" speed="13.89" length="13.51" shape="81.35,-91.59 85.36,-91.47 88.13,-91.53 90.82,-92.08 94.56,-93.44"/>
    </edge>
    <edge id=":gneJ13_9" function="internal">
        <lane id=":gneJ13_9_0" index="0" speed="8.38" length="6.25" shape="81.35,-91.59 85.79,-90.87 87.26,-89.92"/>
    </edge>
    <edge id=":gneJ13_16" function="internal">
        <lane id=":gneJ13_16_0" index="0" allow="bicycle" speed="9.15" length="9.93" width="1.50" shape="90.79,-90.43 92.81,-86.58 93.22,-81.01"/>
    </edge>
    <edge id=":gneJ13_17" function="internal">
        <lane id=":gneJ13_17_0" index="0" speed="8.38" length="10.04" shape="87.26,-89.92 88.85,-88.89 90.55,-85.66 90.87,-81.18"/>
    </edge>
    <edge id=":gneJ13_10" function="internal">
        <lane id=":gneJ13_10_0" index="0" allow="pedestrian" speed="4.38" length="4.06" width="2.00" shape="83.59,-81.69 83.51,-82.81 83.09,-83.61 82.32,-84.11 81.22,-84.29"/>
    </edge>
    <edge id=":gneJ13_11" function="internal">
        <lane id=":gneJ13_11_0" index="0" allow="bicycle" speed="5.50" length="6.99" width="1.50" shape="85.34,-81.57 85.20,-83.49 84.47,-84.88 83.15,-85.73 81.25,-86.04"/>
    </edge>
    <edge id=":gneJ13_12" function="internal">
        <lane id=":gneJ13_12_0" index="0" allow="bicycle" speed="10.63" length="17.25" width="1.50" shape="85.34,-81.57 86.15,-86.57 87.81,-90.58 90.32,-93.60 93.68,-95.62"/>
    </edge>
    <edge id=":gneJ13_13" function="internal">
        <lane id=":gneJ13_13_0" index="0" speed="6.97" length="10.93" shape="87.68,-81.40 87.46,-84.41 86.33,-86.58 84.27,-87.90 81.29,-88.39"/>
    </edge>
    <edge id=":gneJ13_14" function="internal">
        <lane id=":gneJ13_14_0" index="0" speed="9.92" length="14.62" shape="87.68,-81.40 88.36,-85.73 89.74,-89.18 91.80,-91.75 94.56,-93.44"/>
    </edge>
    <edge id=":gneJ15_0" function="internal">
        <lane id=":gneJ15_0_0" index="0" allow="bicycle" speed="13.89" length="16.27" width="1.50" shape="347.09,-44.67 343.62,-44.23 340.24,-43.21 336.28,-42.17 331.02,-41.63"/>
        <lane id=":gneJ15_0_1" index="1" speed="13.89" length="16.27" shape="347.09,-44.67 330.99,-43.38"/>
    </edge>
    <edge id=":gneJ15_2" function="internal">
        <lane id=":gneJ15_2_0" index="0" speed="8.20" length="15.58" shape="347.09,-44.67 342.53,-45.26 339.31,-46.96 337.42,-49.77 336.87,-53.69"/>
    </edge>
    <edge id=":gneJ15_3" function="internal">
        <lane id=":gneJ15_3_0" index="0" allow="bicycle" speed="9.22" length="19.08" width="1.50" shape="343.02,-53.52 342.15,-48.40 339.86,-44.71 336.15,-42.45 331.02,-41.63"/>
    </edge>
    <edge id=":gneJ15_4" function="internal">
        <lane id=":gneJ15_4_0" index="0" allow="bicycle" speed="6.87" length="10.35" width="1.50" shape="341.52,-53.56 341.80,-50.45 342.82,-48.22 344.59,-46.88 347.10,-46.42"/>
    </edge>
    <edge id=":gneJ15_5" function="internal">
        <lane id=":gneJ15_5_0" index="0" speed="8.45" length="15.41" shape="340.67,-53.58 339.97,-49.44 338.12,-46.46 335.13,-44.64 330.98,-43.98"/>
    </edge>
    <edge id=":gneJ15_6" function="internal">
        <lane id=":gneJ15_6_0" index="0" allow="pedestrian" speed="4.49" length="4.01" width="2.00" shape="330.85,-51.28 331.93,-51.45 332.71,-51.93 333.19,-52.70 333.38,-53.78"/>
    </edge>
    <edge id=":gneJ15_7" function="internal">
        <lane id=":gneJ15_7_0" index="0" allow="bicycle" speed="5.60" length="6.74" width="1.50" shape="330.88,-49.53 332.70,-49.82 334.01,-50.62 334.82,-51.92 335.13,-53.73"/>
    </edge>
    <edge id=":gneJ15_8" function="internal">
        <lane id=":gneJ15_8_0" index="0" speed="7.05" length="10.41" shape="330.92,-47.18 333.73,-47.63 335.75,-48.86 337.00,-50.87 337.47,-53.67"/>
    </edge>
    <edge id=":gneJ15_9" function="internal">
        <lane id=":gneJ15_9_0" index="0" allow="bicycle" speed="13.89" length="16.29" width="1.50" shape="330.91,-48.03 336.17,-47.84 340.18,-47.29 343.60,-46.70 347.10,-46.42"/>
    </edge>
    <edge id=":gneJ16_0" function="internal">
        <lane id=":gneJ16_0_0" index="0" allow="pedestrian" speed="9.31" length="20.31" width="2.00" shape="335.26,-170.14 340.78,-169.32 344.67,-166.93 346.94,-162.96 347.58,-157.41"/>
    </edge>
    <edge id=":gneJ16_1" function="internal">
        <lane id=":gneJ16_1_0" index="0" allow="bicycle" speed="8.61" length="17.44" width="1.50" shape="335.25,-168.39 339.99,-167.69 343.33,-165.63 345.28,-162.22 345.83,-157.46"/>
    </edge>
    <edge id=":gneJ16_2" function="internal">
        <lane id=":gneJ16_2_0" index="0" speed="7.78" length="13.59" shape="335.23,-166.04 338.93,-165.49 341.54,-163.89 343.05,-161.24 343.48,-157.52"/>
    </edge>
    <edge id=":gneJ16_3" function="internal">
        <lane id=":gneJ16_3_0" index="0" allow="pedestrian" speed="3.09" length="1.64" width="2.00" shape="336.19,-157.72 336.14,-158.17 335.95,-158.49 335.64,-158.68 335.19,-158.75"/>
    </edge>
    <edge id=":gneJ16_4" function="internal">
        <lane id=":gneJ16_4_0" index="0" allow="bicycle" speed="4.55" length="4.50" width="1.50" shape="337.94,-157.67 337.79,-158.90 337.29,-159.78 336.43,-160.32 335.20,-160.50"/>
    </edge>
    <edge id=":gneJ16_5" function="internal">
        <lane id=":gneJ16_5_0" index="0" speed="6.24" length="8.35" shape="340.29,-157.61 340.02,-159.89 339.09,-161.52 337.49,-162.51 335.22,-162.85"/>
    </edge>
    <edge id=":gneJ2_0" function="internal">
        <lane id=":gneJ2_0_0" index="0" allow="bicycle" speed="6.30" length="8.46" width="1.50" shape="89.36,8.91 86.98,9.19 85.22,10.09 84.09,11.61 83.58,13.74"/>
    </edge>
    <edge id=":gneJ2_1" function="internal">
        <lane id=":gneJ2_1_0" index="0" allow="bicycle" speed="13.89" length="17.71" width="1.50" shape="89.36,8.91 71.65,8.60"/>
    </edge>
    <edge id=":gneJ2_2" function="internal">
        <lane id=":gneJ2_2_0" index="0" allow="bicycle" speed="8.79" length="4.66" width="1.50" shape="89.36,8.91 84.89,7.60"/>
    </edge>
    <edge id=":gneJ2_3" function="internal">
        <lane id=":gneJ2_3_0" index="0" speed="7.61" length="4.17" shape="89.38,6.56 86.03,6.97 85.33,7.34"/>
    </edge>
    <edge id=":gneJ2_4" function="internal">
        <lane id=":gneJ2_4_0" index="0" speed="13.89" length="17.67" shape="89.38,6.56 71.71,6.25"/>
    </edge>
    <edge id=":gneJ2_5" function="internal">
        <lane id=":gneJ2_5_0" index="0" speed="8.34" length="6.51" shape="89.38,6.56 84.71,5.84 83.22,4.86"/>
    </edge>
    <edge id=":gneJ2_24" function="internal">
        <lane id=":gneJ2_24_0" index="0" allow="bicycle" speed="8.79" length="14.90" width="1.50" shape="84.89,7.60 80.94,4.34 78.27,-0.03 77.60,-4.64"/>
    </edge>
    <edge id=":gneJ2_25" function="internal">
        <lane id=":gneJ2_25_0" index="0" speed="7.61" length="7.89" shape="85.33,7.34 83.56,8.27 81.96,10.46 81.24,13.55"/>
    </edge>
    <edge id=":gneJ2_26" function="internal">
        <lane id=":gneJ2_26_0" index="0" speed="8.34" length="10.43" shape="83.22,4.86 81.58,3.78 79.99,0.39 79.93,-4.33"/>
    </edge>
    <edge id=":gneJ2_6" function="internal">
        <lane id=":gneJ2_6_0" index="0" allow="bicycle" speed="5.44" length="7.17" width="1.50" shape="85.43,-3.60 85.46,-1.60 86.13,-0.17 87.46,0.70 89.44,1.01"/>
    </edge>
    <edge id=":gneJ2_7" function="internal">
        <lane id=":gneJ2_7_0" index="0" allow="bicycle" speed="13.89" length="17.44" width="1.50" shape="85.43,-3.60 83.58,13.74"/>
    </edge>
    <edge id=":gneJ2_8" function="internal">
        <lane id=":gneJ2_8_0" index="0" allow="bicycle" speed="9.60" length="19.71" width="1.50" shape="85.43,-3.60 83.79,0.89 80.52,4.84 76.25,7.61 71.65,8.60"/>
    </edge>
    <edge id=":gneJ2_9" function="internal">
        <lane id=":gneJ2_9_0" index="0" speed="6.92" length="11.31" shape="83.10,-3.91 83.14,-0.76 84.21,1.51 86.30,2.88 89.41,3.36"/>
    </edge>
    <edge id=":gneJ2_10" function="internal">
        <lane id=":gneJ2_10_0" index="0" speed="13.89" length="17.56" shape="83.10,-3.91 81.24,13.55"/>
    </edge>
    <edge id=":gneJ2_11" function="internal">
        <lane id=":gneJ2_11_0" index="0" speed="9.07" length="17.03" shape="83.10,-3.91 81.87,0.63 79.57,3.84 76.18,5.71 71.71,6.25"/>
    </edge>
    <edge id=":gneJ2_12" function="internal">
        <lane id=":gneJ2_12_0" index="0" allow="bicycle" speed="6.48" length="8.75" width="1.50" shape="71.85,0.70 74.10,0.42 75.80,-0.57 76.97,-2.25 77.60,-4.64"/>
    </edge>
    <edge id=":gneJ2_13" function="internal">
        <lane id=":gneJ2_13_0" index="0" allow="bicycle" speed="13.89" length="17.59" width="1.50" shape="71.85,0.70 89.44,1.01"/>
    </edge>
    <edge id=":gneJ2_14" function="internal">
        <lane id=":gneJ2_14_0" index="0" allow="bicycle" speed="8.87" length="4.38" width="1.50" shape="71.85,0.70 76.06,1.94"/>
    </edge>
    <edge id=":gneJ2_15" function="internal">
        <lane id=":gneJ2_15_0" index="0" speed="7.77" length="4.00" shape="71.79,3.05 74.98,2.66 75.67,2.27"/>
    </edge>
    <edge id=":gneJ2_16" function="internal">
        <lane id=":gneJ2_16_0" index="0" speed="13.89" length="17.62" shape="71.79,3.05 89.41,3.36"/>
    </edge>
    <edge id=":gneJ2_17" function="internal">
        <lane id=":gneJ2_17_0" index="0" speed="8.38" length="6.21" shape="71.79,3.05 76.23,3.81 77.66,4.74"/>
    </edge>
    <edge id=":gneJ2_27" function="internal">
        <lane id=":gneJ2_27_0" index="0" allow="bicycle" speed="8.87" length="14.63" width="1.50" shape="76.06,1.94 76.22,1.98 80.08,5.09 82.77,9.27 83.58,13.74"/>
    </edge>
    <edge id=":gneJ2_28" function="internal">
        <lane id=":gneJ2_28_0" index="0" speed="7.77" length="8.25" shape="75.67,2.27 77.40,1.30 79.05,-1.03 79.93,-4.33"/>
    </edge>
    <edge id=":gneJ2_29" function="internal">
        <lane id=":gneJ2_29_0" index="0" speed="8.38" length="10.10" shape="77.66,4.74 79.29,5.81 80.96,9.06 81.24,13.55"/>
    </edge>
    <edge id=":gneJ2_18" function="internal">
        <lane id=":gneJ2_18_0" index="0" allow="bicycle" speed="5.50" length="7.00" width="1.50" shape="75.70,13.10 75.58,11.18 74.87,9.78 73.56,8.92 71.65,8.60"/>
    </edge>
    <edge id=":gneJ2_19" function="internal">
        <lane id=":gneJ2_19_0" index="0" allow="bicycle" speed="13.89" length="17.84" width="1.50" shape="75.70,13.10 77.60,-4.64"/>
    </edge>
    <edge id=":gneJ2_20" function="internal">
        <lane id=":gneJ2_20_0" index="0" allow="bicycle" speed="9.45" length="19.66" width="1.50" shape="75.70,13.10 77.20,8.64 80.47,4.75 84.79,2.02 89.44,1.01"/>
    </edge>
    <edge id=":gneJ2_21" function="internal">
        <lane id=":gneJ2_21_0" index="0" speed="6.96" length="10.94" shape="78.05,13.29 77.86,10.28 76.74,8.10 74.69,6.76 71.71,6.25"/>
    </edge>
    <edge id=":gneJ2_22" function="internal">
        <lane id=":gneJ2_22_0" index="0" speed="13.89" length="17.72" shape="78.05,13.29 79.93,-4.33"/>
    </edge>
    <edge id=":gneJ2_23" function="internal">
        <lane id=":gneJ2_23_0" index="0" speed="8.93" length="16.96" shape="78.05,13.29 79.06,8.91 81.29,5.79 84.74,3.94 89.41,3.36"/>
    </edge>
    <edge id=":gneJ3_0" function="internal">
        <lane id=":gneJ3_0_0" index="0" allow="pedestrian" speed="5.29" length="5.84" width="2.00" shape="-25.67,7.89 -26.96,8.12 -27.91,8.89 -28.54,10.19 -28.84,12.03"/>
    </edge>
    <edge id=":gneJ3_1" function="internal">
        <lane id=":gneJ3_1_0" index="0" allow="bicycle" speed="6.26" length="8.58" width="1.50" shape="-25.62,6.14 -27.66,6.46 -29.16,7.53 -30.13,9.35 -30.58,11.92"/>
    </edge>
    <edge id=":gneJ3_2" function="internal">
        <lane id=":gneJ3_2_0" index="0" allow="bicycle" speed="13.89" length="17.44" width="1.50" shape="-25.62,6.14 -30.80,6.05 -34.34,6.16 -37.86,6.53 -42.99,7.25"/>
    </edge>
    <edge id=":gneJ3_3" function="internal">
        <lane id=":gneJ3_3_0" index="0" allow="bicycle" speed="8.91" length="18.80" width="1.50" shape="-25.62,6.14 -29.95,4.90 -33.80,1.87 -36.51,-2.21 -37.41,-6.62"/>
    </edge>
    <edge id=":gneJ3_4" function="internal">
        <lane id=":gneJ3_4_0" index="0" speed="7.58" length="12.26" shape="-25.57,3.79 -28.60,4.23 -30.83,5.70 -32.28,8.22 -32.93,11.78"/>
    </edge>
    <edge id=":gneJ3_5" function="internal">
        <lane id=":gneJ3_5_0" index="0" speed="13.89" length="17.83" shape="-25.57,3.79 -30.85,3.70 -34.47,3.81 -38.08,4.19 -43.32,4.92"/>
    </edge>
    <edge id=":gneJ3_6" function="internal">
        <lane id=":gneJ3_6_0" index="0" speed="8.39" length="16.07" shape="-25.57,3.79 -29.92,3.05 -32.96,1.09 -34.67,-2.09 -35.06,-6.49"/>
    </edge>
    <edge id=":gneJ3_7" function="internal">
        <lane id=":gneJ3_7_0" index="0" allow="pedestrian" speed="4.40" length="4.05" width="2.00" shape="-27.77,-6.10 -27.67,-4.99 -27.24,-4.19 -26.48,-3.69 -25.38,-3.51"/>
    </edge>
    <edge id=":gneJ3_8" function="internal">
        <lane id=":gneJ3_8_0" index="0" allow="bicycle" speed="5.53" length="6.93" width="1.50" shape="-29.52,-6.19 -29.35,-4.29 -28.61,-2.92 -27.30,-2.07 -25.42,-1.76"/>
    </edge>
    <edge id=":gneJ3_9" function="internal">
        <lane id=":gneJ3_9_0" index="0" allow="bicycle" speed="13.89" length="18.15" width="1.50" shape="-29.52,-6.19 -30.58,11.92"/>
    </edge>
    <edge id=":gneJ3_10" function="internal">
        <lane id=":gneJ3_10_0" index="0" allow="bicycle" speed="10.08" length="3.63" width="1.50" shape="-29.52,-6.19 -30.58,-2.72"/>
    </edge>
    <edge id=":gneJ3_11" function="internal">
        <lane id=":gneJ3_11_0" index="0" speed="6.98" length="3.76" shape="-31.87,-6.32 -31.60,-3.36 -31.23,-2.66"/>
    </edge>
    <edge id=":gneJ3_12" function="internal">
        <lane id=":gneJ3_12_0" index="0" speed="13.89" length="18.13" shape="-31.87,-6.32 -32.93,11.78"/>
    </edge>
    <edge id=":gneJ3_13" function="internal">
        <lane id=":gneJ3_13_0" index="0" speed="9.56" length="5.20" shape="-31.87,-6.32 -32.78,-1.98 -33.20,-1.34"/>
    </edge>
    <edge id=":gneJ3_28" function="internal">
        <lane id=":gneJ3_28_0" index="0" allow="bicycle" speed="10.08" length="16.53" width="1.50" shape="-30.58,-2.72 -30.87,-1.76 -34.02,2.38 -38.28,5.59 -42.99,7.25"/>
    </edge>
    <edge id=":gneJ3_29" function="internal">
        <lane id=":gneJ3_29_0" index="0" speed="6.98" length="7.04" shape="-31.23,-2.66 -30.45,-1.22 -28.41,0.10 -25.48,0.59"/>
    </edge>
    <edge id=":gneJ3_30" function="internal">
        <lane id=":gneJ3_30_0" index="0" speed="9.56" length="12.41" shape="-33.20,-1.34 -34.99,1.34 -38.51,3.64 -43.32,4.92"/>
    </edge>
    <edge id=":gneJ3_14" function="internal">
        <lane id=":gneJ3_14_0" index="0" allow="pedestrian" speed="6.27" length="7.43" width="2.00" shape="-44.34,-2.33 -42.15,-2.86 -40.55,-3.77 -39.55,-5.05 -39.15,-6.72"/>
    </edge>
    <edge id=":gneJ3_15" function="internal">
        <lane id=":gneJ3_15_0" index="0" allow="bicycle" speed="7.12" length="9.86" width="1.50" shape="-44.10,-0.59 -41.28,-1.30 -39.22,-2.55 -37.93,-4.32 -37.41,-6.62"/>
    </edge>
    <edge id=":gneJ3_16" function="internal">
        <lane id=":gneJ3_16_0" index="0" allow="bicycle" speed="13.89" length="18.75" width="1.50" shape="-44.10,-0.59 -38.59,-1.35 -34.79,-1.75 -30.98,-1.86 -25.42,-1.76"/>
    </edge>
    <edge id=":gneJ3_17" function="internal">
        <lane id=":gneJ3_17_0" index="0" allow="bicycle" speed="8.70" length="20.20" width="1.50" shape="-44.10,-0.59 -39.37,0.14 -34.92,3.05 -31.68,7.26 -30.58,11.92"/>
    </edge>
    <edge id=":gneJ3_18" function="internal">
        <lane id=":gneJ3_18_0" index="0" speed="8.31" length="13.14" shape="-43.77,1.73 -40.10,0.79 -37.43,-0.90 -35.75,-3.33 -35.06,-6.49"/>
    </edge>
    <edge id=":gneJ3_19" function="internal">
        <lane id=":gneJ3_19_0" index="0" speed="13.89" length="18.36" shape="-43.77,1.73 -38.37,0.99 -34.66,0.60 -30.93,0.50 -25.48,0.59"/>
    </edge>
    <edge id=":gneJ3_20" function="internal">
        <lane id=":gneJ3_20_0" index="0" speed="8.31" length="17.76" shape="-43.77,1.73 -38.75,1.76 -35.27,3.44 -33.33,6.78 -32.93,11.78"/>
    </edge>
    <edge id=":gneJ3_21" function="internal">
        <lane id=":gneJ3_21_0" index="0" allow="pedestrian" speed="4.22" length="4.14" width="2.00" shape="-40.21,11.32 -40.31,10.16 -40.76,9.38 -41.57,8.99 -42.74,8.98"/>
    </edge>
    <edge id=":gneJ3_22" function="internal">
        <lane id=":gneJ3_22_0" index="0" allow="bicycle" speed="5.39" length="7.40" width="1.50" shape="-38.47,11.43 -38.64,9.35 -39.45,7.96 -40.90,7.26 -42.99,7.25"/>
    </edge>
    <edge id=":gneJ3_23" function="internal">
        <lane id=":gneJ3_23_0" index="0" allow="bicycle" speed="13.89" length="18.08" width="1.50" shape="-38.47,11.43 -37.41,-6.62"/>
    </edge>
    <edge id=":gneJ3_24" function="internal">
        <lane id=":gneJ3_24_0" index="0" allow="bicycle" speed="9.40" length="4.13" width="1.50" shape="-38.47,11.43 -37.33,7.47"/>
    </edge>
    <edge id=":gneJ3_25" function="internal">
        <lane id=":gneJ3_25_0" index="0" speed="6.88" length="4.03" shape="-36.12,11.58 -36.39,8.26 -36.74,7.65"/>
    </edge>
    <edge id=":gneJ3_26" function="internal">
        <lane id=":gneJ3_26_0" index="0" speed="13.89" length="18.10" shape="-36.12,11.58 -35.06,-6.49"/>
    </edge>
    <edge id=":gneJ3_27" function="internal">
        <lane id=":gneJ3_27_0" index="0" speed="8.89" length="6.09" shape="-36.12,11.58 -35.19,6.68 -34.62,5.73"/>
    </edge>
    <edge id=":gneJ3_31" function="internal">
        <lane id=":gneJ3_31_0" index="0" allow="bicycle" speed="9.40" length="15.83" width="1.50" shape="-37.33,7.47 -37.12,6.75 -34.09,2.47 -29.98,-0.63 -25.42,-1.76"/>
    </edge>
    <edge id=":gneJ3_32" function="internal">
        <lane id=":gneJ3_32_0" index="0" speed="6.88" length="7.75" shape="-36.74,7.65 -37.68,6.05 -39.99,4.93 -43.32,4.92"/>
    </edge>
    <edge id=":gneJ3_33" function="internal">
        <lane id=":gneJ3_33_0" index="0" speed="8.89" length="11.19" shape="-34.62,5.73 -33.11,3.21 -29.88,1.19 -25.48,0.59"/>
    </edge>
    <edge id=":gneJ4_0" function="internal">
        <lane id=":gneJ4_0_0" index="0" speed="13.89" length="16.95" shape="-114.56,63.08 -131.51,63.27"/>
        <lane id=":gneJ4_0_1" index="1" speed="13.89" length="16.95" shape="-114.60,59.88 -131.55,60.07"/>
    </edge>
    <edge id=":gneJ4_2" function="internal">
        <lane id=":gneJ4_2_0" index="0" speed="8.22" length="18.39" shape="-114.60,59.88 -119.88,59.19 -123.16,57.01 -124.44,53.32 -123.72,48.14"/>
    </edge>
    <edge id=":gneJ4_3" function="internal">
        <lane id=":gneJ4_3_0" index="0" speed="5.94" length="8.99" shape="-120.66,49.03 -120.77,51.00 -119.81,52.40 -117.77,53.23 -114.66,53.48"/>
    </edge>
    <edge id=":gneJ4_4" function="internal">