<?xml version="1.0" encoding="UTF-8"?>

<!-- generated on 05/02/20 11:53:04 by Eclipse SUMO netedit Version 1.5.0
<configuration xmlns:xsi="http://www.w3.org/2001/XMLSchema-instance" xsi:noNamespaceSchemaLocation="http://sumo.dlr.de/xsd/netconvertConfiguration.xsd">

    <input>
        <sumo-net-file value="Y:\SumoNetVis\Sample\test.net.xml"/>
    </input>

    <output>
        <output-file value="Y:\SumoNetVis\Sample\test.net.xml"/>
    </output>

    <processing>
        <geometry.min-radius.fix.railways value="false"/>
        <geometry.max-grade.fix value="false"/>
        <offset.disable-normalization value="true"/>
        <lefthand value="false"/>
    </processing>

    <junctions>
        <no-internal-links value="false"/>
        <no-turnarounds value="true"/>
        <junctions.corner-detail value="5"/>
        <junctions.limit-turn-speed value="5.5"/>
        <rectangular-lane-cut value="false"/>
    </junctions>

    <pedestrian>
        <walkingareas value="false"/>
    </pedestrian>

    <netedit>
        <additional-files value="C:\Users\ga62mog\test.add.xml"/>
    </netedit>

    <report>
        <aggregate-warnings value="5"/>
    </report>

</configuration>
-->

<additional xmlns:xsi="http://www.w3.org/2001/XMLSchema-instance" xsi:noNamespaceSchemaLocation="http://sumo.dlr.de/xsd/additional_file.xsd">
    <poly id="bldg1" color="110,110,110" fill="1" layer="128.00" shape="-111.920000,49.160000 -95.600000,27.950000 -76.560000,20.870000 -76.020000,49.160000 -111.920000,49.160000"/>
    <poly id="district1" color="red" fill="0" layer="128.00" shape="-51.010000,-110.680000 98.790000,-109.800000 212.670000,-75.640000 210.910000,42.620000 12.940000,41.740000 13.820000,-19.580000 -54.510000,-19.580000 -51.010000,-110.680000"/>
    <poly id="fence" color="black" fill="0" layer="128.00" shape="-72.530000,19.230000 -62.640000,16.980000 -46.010000,17.430000 -46.460000,48.440000 -75.980000,49.150000"/>
    <poly id="greenspace" color="0,114,41" fill="1" layer="128.00" shape="223.870000,-143.760000 229.900000,-144.300000 239.800000,-141.500000 250.770000,-139.890000 259.810000,-143.330000 265.950000,-151.400000 270.580000,-160.230000 270.680000,-166.900000 264.980000,-169.270000 254.330000,-168.940000 244.530000,-165.070000 235.920000,-157.640000 228.820000,-148.820000 223.870000,-143.760000"/>
    <poi id="monument" color="red" layer="202.00" x="250.45" y="-154.11"/>
    <poi id="lanebased" color="blue" layer="202.00" lane="-gneE13_2" pos="50" posLat="-1"/>
</additional>
