<?xml version="1.0" encoding="UTF-8"?>

<!-- generated on 04/19/20 09:51:06 by Eclipse SUMO netedit Version 1.5.0
<configuration xmlns:xsi="http://www.w3.org/2001/XMLSchema-instance" xsi:noNamespaceSchemaLocation="http://sumo.dlr.de/xsd/netconvertConfiguration.xsd">

    <input>
        <sumo-net-file value="Y:\SumoNetVis\Sample\test.net.xml"/>
    </input>

    <output>
        <output-file value="Y:\SumoNetVis\Sample\test.net.xml"/>
    </output>

    <processing>
        <geometry.min-radius.fix.railways value="false"/>
        <geometry.max-grade.fix value="false"/>
        <offset.disable-normalization value="true"/>
        <lefthand value="false"/>
    </processing>

    <junctions>
        <no-internal-links value="false"/>
        <no-turnarounds value="true"/>
        <junctions.corner-detail value="5"/>
        <junctions.limit-turn-speed value="5.5"/>
        <rectangular-lane-cut value="false"/>
    </junctions>

    <pedestrian>
        <walkingareas value="false"/>
    </pedestrian>

    <report>
        <aggregate-warnings value="5"/>
    </report>

</configuration>
-->

<net version="1.3" junctionCornerDetail="5" limitTurnSpeed="5.50" xmlns:xsi="http://www.w3.org/2001/XMLSchema-instance" xsi:noNamespaceSchemaLocation="http://sumo.dlr.de/xsd/net_file.xsd">

    <location netOffset="0.00,0.00" convBoundary="-210.20,-170.57,438.30,63.61" origBoundary="-10000000000.00,-10000000000.00,10000000000.00,10000000000.00" projParameter="!"/>

    <edge id=":gneJ0_0" function="internal">
        <lane id=":gneJ0_0_0" index="0" speed="13.89" length="16.20" shape="-28.92,62.42 -45.09,62.39"/>
        <lane id=":gneJ0_0_1" index="1" speed="13.89" length="16.20" shape="-28.88,59.22 -45.12,59.19"/>
    </edge>
    <edge id=":gneJ0_2" function="internal">
        <lane id=":gneJ0_2_0" index="0" speed="8.32" length="6.26" shape="-28.88,59.22 -33.30,58.54 -34.82,57.61"/>
    </edge>
    <edge id=":gneJ0_8" function="internal">
        <lane id=":gneJ0_8_0" index="0" speed="8.32" length="9.75" shape="-34.82,57.61 -36.38,56.65 -38.10,53.53 -38.46,49.19"/>
    </edge>
    <edge id=":gneJ0_3" function="internal">
        <lane id=":gneJ0_3_0" index="0" speed="6.12" length="8.17" shape="-35.27,49.39 -34.94,50.86 -33.76,51.92 -31.71,52.57 -28.80,52.82"/>
    </edge>
    <edge id=":gneJ0_4" function="internal">
        <lane id=":gneJ0_4_0" index="0" speed="8.59" length="15.60" shape="-35.27,49.39 -36.11,53.64 -38.04,56.69 -41.04,58.54 -45.12,59.19"/>
    </edge>
    <edge id=":gneJ0_5" function="internal">
        <lane id=":gneJ0_5_0" index="0" allow="bicycle" speed="5.51" length="5.84" width="1.50" shape="-45.19,51.94 -43.34,51.74 -41.99,51.19 -41.15,50.29 -40.81,49.04"/>
    </edge>
    <edge id=":gneJ0_6" function="internal">
        <lane id=":gneJ0_6_0" index="0" speed="6.46" length="8.38" shape="-45.18,52.79 -42.33,52.54 -40.25,51.86 -38.97,50.74 -38.46,49.19"/>
    </edge>
    <edge id=":gneJ0_7" function="internal">
        <lane id=":gneJ0_7_0" index="0" speed="13.89" length="16.31" shape="-45.15,55.99 -28.84,56.02"/>
    </edge>
    <edge id=":gneJ0_w0" function="walkingarea">
        <lane id=":gneJ0_w0_0" index="0" allow="pedestrian" speed="1.00" length="13.53" width="3.20" shape="-41.56,49.00 -43.55,48.87 -45.20,51.19 -45.17,54.39 -45.17,54.39 -45.13,57.59 -45.13,57.59 -45.10,60.79 -45.10,60.79 -45.07,63.99 -28.94,64.02 -28.90,60.82 -28.90,60.82 -28.86,57.62 -28.86,57.62 -28.82,54.42 -28.82,54.42 -28.77,51.22 -30.18,49.71 -32.18,49.58"/>
    </edge>
    <edge id=":gneJ0_w1" function="walkingarea">
        <lane id=":gneJ0_w1_0" index="0" allow="pedestrian" speed="1.00" length="11.40" width="3.20" shape="-33.67,49.49 -36.87,49.29 -36.87,49.29 -40.06,49.09"/>
    </edge>
    <edge id=":gneJ1_0" function="internal">
        <lane id=":gneJ1_0_0" index="0" speed="13.89" length="16.32" shape="84.42,64.01 68.12,63.70"/>
        <lane id=":gneJ1_0_1" index="1" speed="13.89" length="16.32" shape="84.50,60.81 68.17,60.50"/>
    </edge>
    <edge id=":gneJ1_2" function="internal">
        <lane id=":gneJ1_2_0" index="0" speed="8.31" length="6.33" shape="84.50,60.81 80.06,60.08 78.51,59.09"/>
    </edge>
    <edge id=":gneJ1_8" function="internal">
        <lane id=":gneJ1_8_0" index="0" speed="8.31" length="9.74" shape="78.51,59.09 77.00,58.13 75.33,54.98 75.04,50.61"/>
    </edge>
    <edge id=":gneJ1_3" function="internal">
        <lane id=":gneJ1_3_0" index="0" speed="6.12" length="8.19" shape="78.23,50.87 78.53,52.36 79.70,53.44 81.74,54.13 84.65,54.41"/>
    </edge>
    <edge id=":gneJ1_4" function="internal">
        <lane id=":gneJ1_4_0" index="0" speed="8.59" length="15.66" shape="78.23,50.87 77.31,55.13 75.32,58.15 72.27,59.94 68.17,60.50"/>
    </edge>
    <edge id=":gneJ1_5" function="internal">
        <lane id=":gneJ1_5_0" index="0" allow="bicycle" speed="5.51" length="5.86" width="1.50" shape="68.26,53.25 70.12,53.09 71.47,52.57 72.33,51.68 72.70,50.42"/>
    </edge>
    <edge id=":gneJ1_6" function="internal">
        <lane id=":gneJ1_6_0" index="0" speed="6.45" length="8.41" shape="68.25,54.10 71.11,53.91 73.20,53.27 74.51,52.17 75.04,50.61"/>
    </edge>
    <edge id=":gneJ1_7" function="internal">
        <lane id=":gneJ1_7_0" index="0" speed="13.89" length="16.37" shape="68.21,57.30 84.58,57.61"/>
    </edge>
    <edge id=":gneJ1_w0" function="walkingarea">
        <lane id=":gneJ1_w0_0" index="0" allow="pedestrian" speed="1.00" length="13.56" width="3.20" shape="71.95,50.36 69.96,50.20 68.27,52.50 68.23,55.70 68.23,55.70 68.19,58.90 68.19,58.90 68.14,62.10 68.14,62.10 68.10,65.30 84.38,65.60 84.46,62.41 84.46,62.41 84.54,59.21 84.54,59.21 84.62,56.01 84.62,56.01 84.69,52.81 83.31,51.28 81.32,51.12"/>
    </edge>
    <edge id=":gneJ1_w1" function="walkingarea">
        <lane id=":gneJ1_w1_0" index="0" allow="pedestrian" speed="1.00" length="11.40" width="3.20" shape="79.83,51.00 76.64,50.74 76.64,50.74 73.45,50.48"/>
    </edge>
    <edge id=":gneJ10_0" function="internal">
        <lane id=":gneJ10_0_0" index="0" allow="pedestrian" speed="4.83" length="4.68" width="2.00" shape="198.11,-37.57 197.04,-37.35 196.25,-36.73 195.75,-35.70 195.53,-34.28"/>
    </edge>
    <edge id=":gneJ10_1" function="internal">
        <lane id=":gneJ10_1_0" index="0" allow="bicycle" speed="5.88" length="7.37" width="1.50" shape="198.08,-39.32 196.28,-38.98 194.97,-38.04 194.13,-36.50 193.78,-34.36"/>
    </edge>
    <edge id=":gneJ10_2" function="internal">
        <lane id=":gneJ10_2_0" index="0" allow="bicycle" speed="13.89" length="16.41" width="1.50" shape="198.08,-39.32 181.67,-39.07"/>
    </edge>
    <edge id=":gneJ10_3" function="internal">
        <lane id=":gneJ10_3_0" index="0" speed="7.27" length="3.55" shape="198.04,-41.67 195.27,-41.18 194.66,-40.76"/>
    </edge>
    <edge id=":gneJ10_4" function="internal">
        <lane id=":gneJ10_4_0" index="0" speed="13.89" length="16.40" shape="198.04,-41.67 181.64,-41.42"/>
    </edge>
    <edge id=":gneJ10_15" function="internal">
        <lane id=":gneJ10_15_0" index="0" speed="7.27" length="7.44" shape="194.66,-40.76 193.25,-39.81 191.97,-37.58 191.43,-34.47"/>
    </edge>
    <edge id=":gneJ10_5" function="internal">
        <lane id=":gneJ10_5_0" index="0" allow="pedestrian" speed="13.89" length="16.38" width="2.00" shape="181.55,-48.72 197.92,-48.96"/>
        <lane id=":gneJ10_5_1" index="1" allow="bicycle" speed="13.89" length="16.38" width="1.50" shape="181.57,-46.97 197.95,-47.22"/>
    </edge>
    <edge id=":gneJ10_7" function="internal">
        <lane id=":gneJ10_7_0" index="0" allow="bicycle" speed="9.15" length="10.98" width="1.50" shape="181.57,-46.97 187.13,-46.24 191.01,-43.90 191.43,-43.17"/>
    </edge>
    <edge id=":gneJ10_8" function="internal">
        <lane id=":gneJ10_8_0" index="0" speed="13.89" length="16.39" shape="181.60,-44.62 197.99,-44.87"/>
    </edge>
    <edge id=":gneJ10_9" function="internal">
        <lane id=":gneJ10_9_0" index="0" speed="8.37" length="6.31" shape="181.60,-44.62 186.08,-44.03 187.61,-43.11"/>
    </edge>
    <edge id=":gneJ10_16" function="internal">
        <lane id=":gneJ10_16_0" index="0" allow="bicycle" speed="9.15" length="9.30" width="1.50" shape="191.43,-43.17 193.23,-39.94 193.78,-34.36"/>
    </edge>
    <edge id=":gneJ10_17" function="internal">
        <lane id=":gneJ10_17_0" index="0" speed="8.37" length="10.03" shape="187.61,-43.11 189.21,-42.15 190.99,-38.96 191.43,-34.47"/>
    </edge>
    <edge id=":gneJ10_10" function="internal">
        <lane id=":gneJ10_10_0" index="0" allow="pedestrian" speed="4.37" length="4.06" width="2.00" shape="184.14,-34.79 184.03,-35.91 183.59,-36.70 182.81,-37.17 181.70,-37.32"/>
    </edge>
    <edge id=":gneJ10_11" function="internal">
        <lane id=":gneJ10_11_0" index="0" allow="bicycle" speed="5.50" length="7.00" width="1.50" shape="185.89,-34.72 185.70,-36.64 184.93,-38.01 183.59,-38.82 181.67,-39.07"/>
    </edge>
    <edge id=":gneJ10_12" function="internal">
        <lane id=":gneJ10_12_0" index="0" allow="bicycle" speed="9.39" length="19.54" width="1.50" shape="185.89,-34.72 186.85,-40.11 189.18,-43.99 192.88,-46.36 197.95,-47.22"/>
    </edge>
    <edge id=":gneJ10_13" function="internal">
        <lane id=":gneJ10_13_0" index="0" speed="6.96" length="10.95" shape="188.24,-34.61 187.94,-37.62 186.74,-39.76 184.64,-41.03 181.64,-41.42"/>
    </edge>
    <edge id=":gneJ10_14" function="internal">
        <lane id=":gneJ10_14_0" index="0" speed="8.64" length="15.92" shape="188.24,-34.61 189.02,-39.04 190.90,-42.22 193.89,-44.16 197.99,-44.87"/>
    </edge>
    <edge id=":gneJ10_w0" function="walkingarea">
        <lane id=":gneJ10_w0_0" index="0" allow="pedestrian" speed="1.00" length="4.18" width="2.00" shape="194.53,-34.33 196.53,-34.24 198.13,-36.57 198.10,-38.57 197.06,-38.43 196.20,-38.07 195.52,-37.48 195.01,-36.66 194.68,-35.61"/>
    </edge>
    <edge id=":gneJ10_w1" function="walkingarea">
        <lane id=":gneJ10_w1_0" index="0" allow="pedestrian" speed="1.00" length="11.40" width="3.20" shape="198.07,-40.07 198.02,-43.27 198.02,-43.27 197.96,-46.47"/>
    </edge>
    <edge id=":gneJ10_w2" function="walkingarea">
        <lane id=":gneJ10_w2_0" index="0" allow="pedestrian" speed="1.00" length="16.37" width="2.00" shape="197.93,-47.97 197.90,-49.96 181.53,-49.72 181.56,-47.72"/>
    </edge>
    <edge id=":gneJ10_w3" function="walkingarea">
        <lane id=":gneJ10_w3_0" index="0" allow="pedestrian" speed="1.00" length="11.40" width="3.20" shape="181.58,-46.22 181.62,-43.02 181.62,-43.02 181.66,-39.82"/>
    </edge>
    <edge id=":gneJ10_w4" function="walkingarea">
        <lane id=":gneJ10_w4_0" index="0" allow="pedestrian" speed="1.00" length="3.51" width="2.00" shape="181.68,-38.32 181.71,-36.32 183.14,-34.84 185.14,-34.75 185.09,-35.85 184.83,-36.75 184.36,-37.45 183.68,-37.94 182.78,-38.23"/>
    </edge>
    <edge id=":gneJ10_w5" function="walkingarea">
        <lane id=":gneJ10_w5_0" index="0" allow="pedestrian" speed="1.00" length="11.40" width="3.20" shape="186.64,-34.68 189.84,-34.54 189.84,-34.54 193.03,-34.40"/>
    </edge>
    <edge id=":gneJ12_0" function="internal">
        <lane id=":gneJ12_0_0" index="0" allow="pedestrian" speed="3.09" length="1.59" width="2.00" shape="-22.99,-86.18 -23.42,-86.13 -23.73,-85.95 -23.93,-85.65 -24.00,-85.22"/>
    </edge>
    <edge id=":gneJ12_1" function="internal">
        <lane id=":gneJ12_1_0" index="0" allow="bicycle" speed="4.55" length="4.36" width="1.50" shape="-22.96,-87.93 -24.14,-87.79 -25.00,-87.30 -25.54,-86.47 -25.75,-85.30"/>
    </edge>
    <edge id=":gneJ12_2" function="internal">
        <lane id=":gneJ12_2_0" index="0" speed="6.24" length="8.09" shape="-22.91,-90.28 -25.11,-90.01 -26.70,-89.10 -27.70,-87.56 -28.10,-85.39"/>
    </edge>
    <edge id=":gneJ12_3" function="internal">
        <lane id=":gneJ12_3_0" index="0" allow="pedestrian" speed="9.32" length="19.67" width="2.00" shape="-35.39,-85.69 -34.42,-90.98 -31.99,-94.72 -28.11,-96.92 -22.78,-97.58"/>
    </edge>
    <edge id=":gneJ12_4" function="internal">
        <lane id=":gneJ12_4_0" index="0" allow="bicycle" speed="8.62" length="16.89" width="1.50" shape="-33.65,-85.62 -32.81,-90.16 -30.72,-93.37 -27.39,-95.26 -22.81,-95.83"/>
    </edge>
    <edge id=":gneJ12_5" function="internal">
        <lane id=":gneJ12_5_0" index="0" speed="7.79" length="13.16" shape="-31.30,-85.52 -30.65,-89.06 -29.02,-91.57 -26.42,-93.04 -22.85,-93.48"/>
    </edge>
    <edge id=":gneJ12_w0" function="walkingarea">
        <lane id=":gneJ12_w0_0" index="0" allow="pedestrian" speed="1.00" length="1.40" width="2.00" shape="-25.00,-85.26 -23.01,-85.18 -23.01,-85.18 -22.97,-87.18 -23.57,-87.14 -24.06,-86.98 -24.45,-86.72 -24.74,-86.35 -24.92,-85.86"/>
    </edge>
    <edge id=":gneJ12_w1" function="walkingarea">
        <lane id=":gneJ12_w1_0" index="0" allow="pedestrian" speed="1.00" length="11.40" width="3.20" shape="-22.94,-88.68 -22.88,-91.88 -22.88,-91.88 -22.83,-95.08"/>
    </edge>
    <edge id=":gneJ12_w2" function="walkingarea">
        <lane id=":gneJ12_w2_0" index="0" allow="pedestrian" speed="1.00" length="17.33" width="2.00" shape="-22.80,-96.58 -22.76,-98.58 -36.39,-85.73 -34.40,-85.65 -33.95,-89.05 -32.90,-91.81 -31.27,-93.95 -29.04,-95.46 -26.21,-96.33"/>
    </edge>
    <edge id=":gneJ12_w3" function="walkingarea">
        <lane id=":gneJ12_w3_0" index="0" allow="pedestrian" speed="1.00" length="11.40" width="3.20" shape="-32.90,-85.59 -29.70,-85.46 -29.70,-85.46 -26.50,-85.33"/>
    </edge>
    <edge id=":gneJ13_0" function="internal">
        <lane id=":gneJ13_0_0" index="0" allow="pedestrian" speed="6.68" length="6.49" width="2.00" shape="97.29,-86.67 96.40,-86.01 95.72,-84.83 95.24,-83.12 94.96,-80.89"/>
    </edge>
    <edge id=":gneJ13_1" function="internal">
        <lane id=":gneJ13_1_0" index="0" allow="bicycle" speed="7.51" length="8.43" width="1.50" shape="96.63,-88.30 95.30,-87.39 94.28,-85.87 93.59,-83.75 93.22,-81.01"/>
    </edge>
    <edge id=":gneJ13_2" function="internal">
        <lane id=":gneJ13_2_0" index="0" allow="bicycle" speed="13.89" length="15.74" width="1.50" shape="96.63,-88.30 92.28,-86.70 89.15,-86.02 85.92,-85.92 81.25,-86.04"/>
    </edge>
    <edge id=":gneJ13_3" function="internal">
        <lane id=":gneJ13_3_0" index="0" speed="8.69" length="2.95" shape="95.75,-90.48 93.82,-89.24 93.43,-88.72"/>
    </edge>
    <edge id=":gneJ13_4" function="internal">
        <lane id=":gneJ13_4_0" index="0" speed="13.89" length="14.80" shape="95.75,-90.48 91.66,-88.98 88.72,-88.36 85.68,-88.27 81.29,-88.39"/>
    </edge>
    <edge id=":gneJ13_15" function="internal">
        <lane id=":gneJ13_15_0" index="0" speed="8.69" length="8.11" shape="93.43,-88.72 92.36,-87.27 91.38,-84.59 90.87,-81.18"/>
    </edge>
    <edge id=":gneJ13_5" function="internal">
        <lane id=":gneJ13_5_0" index="0" allow="pedestrian" speed="13.89" length="12.21" width="2.00" shape="81.42,-95.68 84.94,-95.58 87.38,-95.60 89.75,-96.06 93.03,-97.24"/>
        <lane id=":gneJ13_5_1" index="1" allow="bicycle" speed="13.89" length="12.21" width="1.50" shape="81.39,-93.94 85.12,-93.82 87.70,-93.87 90.21,-94.36 93.68,-95.62"/>
    </edge>
    <edge id=":gneJ13_7" function="internal">
        <lane id=":gneJ13_7_0" index="0" allow="bicycle" speed="9.15" length="10.29" width="1.50" shape="81.39,-93.94 86.90,-93.04 90.71,-90.59 90.79,-90.43"/>
    </edge>
    <edge id=":gneJ13_8" function="internal">
        <lane id=":gneJ13_8_0" index="0" speed="13.89" length="13.51" shape="81.35,-91.59 85.36,-91.47 88.13,-91.53 90.82,-92.08 94.56,-93.44"/>
    </edge>
    <edge id=":gneJ13_9" function="internal">
        <lane id=":gneJ13_9_0" index="0" speed="8.38" length="6.25" shape="81.35,-91.59 85.79,-90.87 87.26,-89.92"/>
    </edge>
    <edge id=":gneJ13_16" function="internal">
        <lane id=":gneJ13_16_0" index="0" allow="bicycle" speed="9.15" length="9.93" width="1.50" shape="90.79,-90.43 92.81,-86.58 93.22,-81.01"/>
    </edge>
    <edge id=":gneJ13_17" function="internal">
        <lane id=":gneJ13_17_0" index="0" speed="8.38" length="10.04" shape="87.26,-89.92 88.85,-88.89 90.55,-85.66 90.87,-81.18"/>
    </edge>
    <edge id=":gneJ13_10" function="internal">
        <lane id=":gneJ13_10_0" index="0" allow="pedestrian" speed="4.38" length="4.06" width="2.00" shape="83.59,-81.69 83.51,-82.81 83.09,-83.61 82.32,-84.11 81.22,-84.29"/>
    </edge>
    <edge id=":gneJ13_11" function="internal">
        <lane id=":gneJ13_11_0" index="0" allow="bicycle" speed="5.50" length="6.99" width="1.50" shape="85.34,-81.57 85.20,-83.49 84.47,-84.88 83.15,-85.73 81.25,-86.04"/>
    </edge>
    <edge id=":gneJ13_12" function="internal">
        <lane id=":gneJ13_12_0" index="0" allow="bicycle" speed="10.63" length="17.25" width="1.50" shape="85.34,-81.57 86.15,-86.57 87.81,-90.58 90.32,-93.60 93.68,-95.62"/>
    </edge>
    <edge id=":gneJ13_13" function="internal">
        <lane id=":gneJ13_13_0" index="0" speed="6.97" length="10.93" shape="87.68,-81.40 87.46,-84.41 86.33,-86.58 84.27,-87.90 81.29,-88.39"/>
    </edge>
    <edge id=":gneJ13_14" function="internal">
        <lane id=":gneJ13_14_0" index="0" speed="9.92" length="14.62" shape="87.68,-81.40 88.36,-85.73 89.74,-89.18 91.80,-91.75 94.56,-93.44"/>
    </edge>
    <edge id=":gneJ13_w0" function="walkingarea">
        <lane id=":gneJ13_w0_0" index="0" allow="pedestrian" speed="1.00" length="6.24" width="2.00" shape="93.96,-80.96 95.96,-80.82 97.66,-85.75 96.91,-87.60 96.12,-87.13 95.45,-86.41 94.90,-85.43 94.47,-84.19 94.16,-82.70"/>
    </edge>
    <edge id=":gneJ13_w1" function="walkingarea">
        <lane id=":gneJ13_w1_0" index="0" allow="pedestrian" speed="1.00" length="11.39" width="3.20" shape="96.35,-88.99 95.15,-91.96 95.16,-91.96 93.96,-94.92"/>
    </edge>
    <edge id=":gneJ13_w2" function="walkingarea">
        <lane id=":gneJ13_w2_0" index="0" allow="pedestrian" speed="1.00" length="11.71" width="2.00" shape="93.40,-96.32 92.65,-98.17 81.44,-96.68 81.41,-94.68 84.01,-94.61 85.96,-94.56 87.57,-94.61 89.14,-94.86 90.98,-95.40"/>
    </edge>
    <edge id=":gneJ13_w3" function="walkingarea">
        <lane id=":gneJ13_w3_0" index="0" allow="pedestrian" speed="1.00" length="11.40" width="3.20" shape="81.38,-93.19 81.32,-89.99 81.32,-89.99 81.26,-86.79"/>
    </edge>
    <edge id=":gneJ13_w4" function="walkingarea">
        <lane id=":gneJ13_w4_0" index="0" allow="pedestrian" speed="1.00" length="3.52" width="2.00" shape="81.24,-85.29 81.20,-83.29 82.59,-81.76 84.59,-81.62 84.57,-82.72 84.33,-83.63 83.88,-84.34 83.21,-84.85 82.33,-85.17"/>
    </edge>
    <edge id=":gneJ13_w5" function="walkingarea">
        <lane id=":gneJ13_w5_0" index="0" allow="pedestrian" speed="1.00" length="11.40" width="3.20" shape="86.08,-81.52 89.28,-81.29 89.28,-81.29 92.47,-81.06"/>
    </edge>
    <edge id=":gneJ14_w0" function="walkingarea">
        <lane id=":gneJ14_w0_0" index="0" allow="pedestrian" speed="1.00" length="9.60" width="3.20" shape="-210.20,59.49 -210.24,56.29 -210.24,56.29 -210.28,53.09 -210.12,65.89 -210.16,62.69 -210.16,62.69 -210.20,59.49"/>
    </edge>
    <edge id=":gneJ15_0" function="internal">
        <lane id=":gneJ15_0_0" index="0" allow="bicycle" speed="13.89" length="16.40" width="1.50" shape="347.09,-44.67 343.62,-44.23 340.24,-43.21 336.28,-42.17 331.02,-41.63"/>
    </edge>
    <edge id=":gneJ15_1" function="internal">
        <lane id=":gneJ15_1_0" index="0" allow="bicycle" speed="6.34" length="9.21" width="1.50" shape="343.02,-53.52 343.21,-50.42 343.95,-48.21 345.24,-46.87 347.10,-46.42"/>
    </edge>
    <edge id=":gneJ15_2" function="internal">
        <lane id=":gneJ15_2_0" index="0" allow="bicycle" speed="9.22" length="19.08" width="1.50" shape="343.02,-53.52 342.15,-48.40 339.86,-44.71 336.15,-42.45 331.02,-41.63"/>
    </edge>
    <edge id=":gneJ15_3" function="internal">
        <lane id=":gneJ15_3_0" index="0" speed="8.45" length="15.41" shape="340.67,-53.58 339.97,-49.44 338.12,-46.46 335.13,-44.64 330.98,-43.98"/>
    </edge>
    <edge id=":gneJ15_4" function="internal">
        <lane id=":gneJ15_4_0" index="0" allow="pedestrian" speed="4.49" length="4.01" width="2.00" shape="330.85,-51.28 331.93,-51.45 332.71,-51.93 333.19,-52.70 333.38,-53.78"/>
    </edge>
    <edge id=":gneJ15_5" function="internal">
        <lane id=":gneJ15_5_0" index="0" allow="bicycle" speed="5.60" length="6.74" width="1.50" shape="330.88,-49.53 332.70,-49.82 334.01,-50.62 334.82,-51.92 335.13,-53.73"/>
    </edge>
    <edge id=":gneJ15_6" function="internal">
        <lane id=":gneJ15_6_0" index="0" speed="7.05" length="10.41" shape="330.92,-47.18 333.73,-47.63 335.75,-48.86 337.00,-50.87 337.47,-53.67"/>
    </edge>
    <edge id=":gneJ15_w1" function="walkingarea">
        <lane id=":gneJ15_w1_0" index="0" allow="pedestrian" speed="1.00" length="11.40" width="3.20" shape="342.27,-53.54 339.07,-53.63 339.07,-53.63 335.87,-53.71"/>
    </edge>
    <edge id=":gneJ15_w2" function="walkingarea">
        <lane id=":gneJ15_w2_0" index="0" allow="pedestrian" speed="1.00" length="3.55" width="2.00" shape="334.38,-53.75 332.38,-53.81 330.84,-52.28 330.87,-50.28 331.92,-50.39 332.78,-50.69 333.45,-51.18 333.95,-51.85 334.25,-52.71"/>
    </edge>
    <edge id=":gneJ15_w3" function="walkingarea">
        <lane id=":gneJ15_w3_0" index="0" allow="pedestrian" speed="1.00" length="11.40" width="3.20" shape="330.90,-48.78 330.95,-45.58 330.95,-45.58 331.01,-42.38"/>
    </edge>
    <edge id=":gneJ16_0" function="internal">
        <lane id=":gneJ16_0_0" index="0" allow="pedestrian" speed="9.31" length="20.31" width="2.00" shape="335.26,-170.14 340.78,-169.32 344.67,-166.93 346.94,-162.96 347.58,-157.41"/>
    </edge>
    <edge id=":gneJ16_1" function="internal">
        <lane id=":gneJ16_1_0" index="0" allow="bicycle" speed="8.61" length="17.44" width="1.50" shape="335.25,-168.39 339.99,-167.69 343.33,-165.63 345.28,-162.22 345.83,-157.46"/>
    </edge>
    <edge id=":gneJ16_2" function="internal">
        <lane id=":gneJ16_2_0" index="0" speed="7.78" length="13.59" shape="335.23,-166.04 338.93,-165.49 341.54,-163.89 343.05,-161.24 343.48,-157.52"/>
    </edge>
    <edge id=":gneJ16_3" function="internal">
        <lane id=":gneJ16_3_0" index="0" allow="pedestrian" speed="3.09" length="1.64" width="2.00" shape="336.19,-157.72 336.14,-158.17 335.95,-158.49 335.64,-158.68 335.19,-158.75"/>
    </edge>
    <edge id=":gneJ16_4" function="internal">
        <lane id=":gneJ16_4_0" index="0" allow="bicycle" speed="4.55" length="4.50" width="1.50" shape="337.94,-157.67 337.79,-158.90 337.29,-159.78 336.43,-160.32 335.20,-160.50"/>
    </edge>
    <edge id=":gneJ16_5" function="internal">
        <lane id=":gneJ16_5_0" index="0" speed="6.24" length="8.35" shape="340.29,-157.61 340.02,-159.89 339.09,-161.52 337.49,-162.51 335.22,-162.85"/>
    </edge>
    <edge id=":gneJ16_w0" function="walkingarea">
        <lane id=":gneJ16_w0_0" index="0" allow="pedestrian" speed="1.00" length="17.72" width="2.00" shape="346.58,-157.44 348.58,-157.39 335.26,-171.14 335.25,-169.14 338.80,-168.80 341.69,-167.82 343.91,-166.19 345.46,-163.92 346.36,-161.00"/>
    </edge>
    <edge id=":gneJ16_w1" function="walkingarea">
        <lane id=":gneJ16_w1_0" index="0" allow="pedestrian" speed="1.00" length="11.39" width="3.20" shape="335.24,-167.64 335.23,-164.44 335.23,-164.45 335.21,-161.25"/>
    </edge>
    <edge id=":gneJ16_w2" function="walkingarea">
        <lane id=":gneJ16_w2_0" index="0" allow="pedestrian" speed="1.00" length="1.43" width="2.00" shape="335.20,-159.75 335.19,-157.75 335.19,-157.75 337.19,-157.69 337.15,-158.32 336.99,-158.83 336.72,-159.23 336.33,-159.52 335.82,-159.69"/>
    </edge>
    <edge id=":gneJ16_w3" function="walkingarea">
        <lane id=":gneJ16_w3_0" index="0" allow="pedestrian" speed="1.00" length="11.40" width="3.20" shape="338.69,-157.65 341.88,-157.57 341.88,-157.57 345.08,-157.48"/>
    </edge>
    <edge id=":gneJ2_0" function="internal">
        <lane id=":gneJ2_0_0" index="0" allow="pedestrian" speed="5.33" length="5.78" width="2.00" shape="89.34,10.66 87.68,10.84 86.46,11.44 85.67,12.46 85.32,13.88"/>
    </edge>
    <edge id=":gneJ2_1" function="internal">
        <lane id=":gneJ2_1_0" index="0" allow="bicycle" speed="6.30" length="8.46" width="1.50" shape="89.36,8.91 86.98,9.19 85.22,10.09 84.09,11.61 83.58,13.74"/>
    </edge>
    <edge id=":gneJ2_2" function="internal">
        <lane id=":gneJ2_2_0" index="0" allow="bicycle" speed="13.89" length="17.71" width="1.50" shape="89.36,8.91 71.65,8.60"/>
    </edge>
    <edge id=":gneJ2_3" function="internal">
        <lane id=":gneJ2_3_0" index="0" allow="bicycle" speed="8.79" length="19.55" width="1.50" shape="89.36,8.91 84.89,7.60 80.94,4.34 78.27,-0.03 77.60,-4.64"/>
    </edge>
    <edge id=":gneJ2_4" function="internal">
        <lane id=":gneJ2_4_0" index="0" speed="7.61" length="12.06" shape="89.38,6.56 86.03,6.97 83.56,8.27 81.96,10.46 81.24,13.55"/>
    </edge>
    <edge id=":gneJ2_5" function="internal">
        <lane id=":gneJ2_5_0" index="0" speed="13.89" length="17.67" shape="89.38,6.56 71.71,6.25"/>
    </edge>
    <edge id=":gneJ2_6" function="internal">
        <lane id=":gneJ2_6_0" index="0" speed="8.34" length="16.94" shape="89.38,6.56 84.71,5.84 81.58,3.78 79.99,0.39 79.93,-4.33"/>
    </edge>
    <edge id=":gneJ2_7" function="internal">
        <lane id=":gneJ2_7_0" index="0" allow="pedestrian" speed="4.30" length="4.10" width="2.00" shape="87.17,-3.37 87.18,-2.23 87.57,-1.41 88.32,-0.92 89.45,-0.74"/>
    </edge>
    <edge id=":gneJ2_8" function="internal">
        <lane id=":gneJ2_8_0" index="0" allow="bicycle" speed="5.44" length="7.17" width="1.50" shape="85.43,-3.60 85.46,-1.60 86.13,-0.17 87.46,0.70 89.44,1.01"/>
    </edge>
    <edge id=":gneJ2_9" function="internal">
        <lane id=":gneJ2_9_0" index="0" allow="bicycle" speed="13.89" length="17.44" width="1.50" shape="85.43,-3.60 83.58,13.74"/>
    </edge>
    <edge id=":gneJ2_10" function="internal">
        <lane id=":gneJ2_10_0" index="0" allow="bicycle" speed="9.60" length="3.87" width="1.50" shape="85.43,-3.60 84.11,0.03"/>
    </edge>
    <edge id=":gneJ2_11" function="internal">
        <lane id=":gneJ2_11_0" index="0" speed="6.92" length="4.07" shape="83.10,-3.91 83.14,-0.76 83.53,0.07"/>
    </edge>
    <edge id=":gneJ2_12" function="internal">
        <lane id=":gneJ2_12_0" index="0" speed="13.89" length="17.56" shape="83.10,-3.91 81.24,13.55"/>
    </edge>
    <edge id=":gneJ2_13" function="internal">
        <lane id=":gneJ2_13_0" index="0" speed="9.07" length="5.55" shape="83.10,-3.91 81.87,0.63 81.38,1.32"/>
    </edge>
    <edge id=":gneJ2_28" function="internal">
        <lane id=":gneJ2_28_0" index="0" allow="bicycle" speed="9.60" length="15.84" width="1.50" shape="84.11,0.03 83.79,0.89 80.52,4.84 76.25,7.61 71.65,8.60"/>
    </edge>
    <edge id=":gneJ2_29" function="internal">
        <lane id=":gneJ2_29_0" index="0" speed="6.92" length="7.24" shape="83.53,0.07 84.21,1.51 86.30,2.88 89.41,3.36"/>
    </edge>
    <edge id=":gneJ2_30" function="internal">
        <lane id=":gneJ2_30_0" index="0" speed="9.07" length="11.47" shape="81.38,1.32 79.57,3.84 76.18,5.71 71.71,6.25"/>
    </edge>
    <edge id=":gneJ2_14" function="internal">
        <lane id=":gneJ2_14_0" index="0" allow="pedestrian" speed="5.55" length="6.14" width="2.00" shape="71.90,-1.05 73.44,-1.25 74.62,-1.96 75.42,-3.16 75.86,-4.87"/>
    </edge>
    <edge id=":gneJ2_15" function="internal">
        <lane id=":gneJ2_15_0" index="0" allow="bicycle" speed="6.48" length="8.75" width="1.50" shape="71.85,0.70 74.10,0.42 75.80,-0.57 76.97,-2.25 77.60,-4.64"/>
    </edge>
    <edge id=":gneJ2_16" function="internal">
        <lane id=":gneJ2_16_0" index="0" allow="bicycle" speed="13.89" length="17.59" width="1.50" shape="71.85,0.70 89.44,1.01"/>
    </edge>
    <edge id=":gneJ2_17" function="internal">
        <lane id=":gneJ2_17_0" index="0" allow="bicycle" speed="8.87" length="19.02" width="1.50" shape="71.85,0.70 76.22,1.98 80.08,5.09 82.77,9.27 83.58,13.74"/>
    </edge>
    <edge id=":gneJ2_18" function="internal">
        <lane id=":gneJ2_18_0" index="0" speed="7.77" length="12.25" shape="71.79,3.05 74.98,2.66 77.40,1.30 79.05,-1.03 79.93,-4.33"/>
    </edge>
    <edge id=":gneJ2_19" function="internal">
        <lane id=":gneJ2_19_0" index="0" speed="13.89" length="17.62" shape="71.79,3.05 89.41,3.36"/>
    </edge>
    <edge id=":gneJ2_20" function="internal">
        <lane id=":gneJ2_20_0" index="0" speed="8.38" length="16.31" shape="71.79,3.05 76.23,3.81 79.29,5.81 80.96,9.06 81.24,13.55"/>
    </edge>
    <edge id=":gneJ2_21" function="internal">
        <lane id=":gneJ2_21_0" index="0" allow="pedestrian" speed="4.37" length="2.94" width="2.00" shape="73.96,12.96 73.89,11.85 73.47,11.04 72.71,10.54"/>
    </edge>
    <edge id=":gneJ2_22" function="internal">
        <lane id=":gneJ2_22_0" index="0" allow="bicycle" speed="5.50" length="5.90" width="1.50" shape="75.70,13.10 75.58,11.18 74.87,9.78 73.56,8.92 72.73,8.79"/>
    </edge>
    <edge id=":gneJ2_23" function="internal">
        <lane id=":gneJ2_23_0" index="0" allow="bicycle" speed="13.89" length="17.84" width="1.50" shape="75.70,13.10 77.60,-4.64"/>
    </edge>
    <edge id=":gneJ2_24" function="internal">
        <lane id=":gneJ2_24_0" index="0" allow="bicycle" speed="9.45" length="3.67" width="1.50" shape="75.70,13.10 76.87,9.63"/>
    </edge>
    <edge id=":gneJ2_25" function="internal">
        <lane id=":gneJ2_25_0" index="0" speed="6.96" length="3.64" shape="78.05,13.29 77.86,10.28 77.57,9.72"/>
    </edge>
    <edge id=":gneJ2_26" function="internal">
        <lane id=":gneJ2_26_0" index="0" speed="13.89" length="17.72" shape="78.05,13.29 79.93,-4.33"/>
    </edge>
    <edge id=":gneJ2_27" function="internal">
        <lane id=":gneJ2_27_0" index="0" speed="8.93" length="5.19" shape="78.05,13.29 79.06,8.91 79.46,8.35"/>