<?xml version="1.0" encoding="UTF-8"?>

<!-- generated on 02/05/20 15:44:58 by Eclipse SUMO netedit Version 1.4.0
<configuration xmlns:xsi="http://www.w3.org/2001/XMLSchema-instance" xsi:noNamespaceSchemaLocation="http://sumo.dlr.de/xsd/netconvertConfiguration.xsd">

    <output>
        <output-file value="C:\Users\ga62mog\Documents\SumoNetVis\Sample\test.net.xml"/>
    </output>

    <processing>
        <offset.disable-normalization value="true"/>
    </processing>

    <junctions>
        <no-turnarounds value="true"/>
    </junctions>

    <report>
        <aggregate-warnings value="5"/>
    </report>

</configuration>
-->

<net version="1.3" junctionCornerDetail="5" limitTurnSpeed="5.50" xmlns:xsi="http://www.w3.org/2001/XMLSchema-instance" xsi:noNamespaceSchemaLocation="http://sumo.dlr.de/xsd/net_file.xsd">

    <location netOffset="0.00,0.00" convBoundary="-210.20,-170.57,438.30,63.61" origBoundary="10000000000.00,10000000000.00,-10000000000.00,-10000000000.00" projParameter="!"/>

    <edge id=":gneJ0_0" function="internal">
        <lane id=":gneJ0_0_0" index="0" speed="13.89" length="16.20" shape="-28.92,62.43 -45.09,62.39"/>
        <lane id=":gneJ0_0_1" index="1" speed="13.89" length="16.20" shape="-28.88,59.23 -45.12,59.19"/>
    </edge>
    <edge id=":gneJ0_2" function="internal">
        <lane id=":gneJ0_2_0" index="0" speed="8.32" length="16.01" shape="-28.88,59.23 -33.31,58.55 -36.38,56.65 -38.10,53.53 -38.47,49.19"/>
    </edge>
    <edge id=":gneJ0_3" function="internal">
        <lane id=":gneJ0_3_0" index="0" speed="6.12" length="8.17" shape="-35.27,49.39 -34.95,50.86 -33.76,51.92 -31.71,52.58 -28.80,52.83"/>
    </edge>
    <edge id=":gneJ0_4" function="internal">
        <lane id=":gneJ0_4_0" index="0" speed="8.59" length="15.60" shape="-35.27,49.39 -36.12,53.64 -38.04,56.70 -41.04,58.54 -45.12,59.19"/>
    </edge>
    <edge id=":gneJ0_5" function="internal">
        <lane id=":gneJ0_5_0" index="0" allow="bicycle" speed="5.51" length="5.84" width="1.50" shape="-45.19,51.94 -43.34,51.74 -42.00,51.20 -41.15,50.30 -40.81,49.05"/>
    </edge>
    <edge id=":gneJ0_6" function="internal">
        <lane id=":gneJ0_6_0" index="0" speed="6.46" length="8.38" shape="-45.19,52.79 -42.33,52.54 -40.26,51.86 -38.97,50.74 -38.47,49.19"/>
    </edge>
    <edge id=":gneJ0_7" function="internal">
        <lane id=":gneJ0_7_0" index="0" speed="13.89" length="16.31" shape="-45.15,55.99 -28.84,56.03"/>
    </edge>
    <edge id=":gneJ1_0" function="internal">
        <lane id=":gneJ1_0_0" index="0" speed="13.89" length="16.32" shape="84.43,64.00 68.13,63.70"/>
        <lane id=":gneJ1_0_1" index="1" speed="13.89" length="16.32" shape="84.50,60.80 68.17,60.50"/>
    </edge>
    <edge id=":gneJ1_2" function="internal">
        <lane id=":gneJ1_2_0" index="0" speed="8.31" length="16.07" shape="84.50,60.80 80.07,60.07 77.01,58.13 75.34,54.98 75.04,50.61"/>
    </edge>
    <edge id=":gneJ1_3" function="internal">
        <lane id=":gneJ1_3_0" index="0" speed="6.12" length="8.19" shape="78.23,50.87 78.53,52.35 79.70,53.44 81.75,54.12 84.66,54.41"/>
    </edge>
    <edge id=":gneJ1_4" function="internal">
        <lane id=":gneJ1_4_0" index="0" speed="8.59" length="15.66" shape="78.23,50.87 77.31,55.12 75.33,58.15 72.28,59.94 68.17,60.50"/>
    </edge>
    <edge id=":gneJ1_5" function="internal">
        <lane id=":gneJ1_5_0" index="0" allow="bicycle" speed="5.51" length="5.86" width="1.50" shape="68.26,53.25 70.12,53.09 71.48,52.57 72.34,51.68 72.70,50.42"/>
    </edge>
    <edge id=":gneJ1_6" function="internal">
        <lane id=":gneJ1_6_0" index="0" speed="6.45" length="8.41" shape="68.25,54.10 71.12,53.91 73.20,53.27 74.51,52.17 75.04,50.61"/>
    </edge>
    <edge id=":gneJ1_7" function="internal">
        <lane id=":gneJ1_7_0" index="0" speed="13.89" length="16.37" shape="68.21,57.30 84.58,57.60"/>
    </edge>
    <edge id=":gneJ10_0" function="internal">
        <lane id=":gneJ10_0_0" index="0" allow="bicycle" speed="5.88" length="7.37" width="1.50" shape="198.08,-39.32 196.28,-38.98 194.97,-38.04 194.13,-36.50 193.78,-34.36"/>
    </edge>
    <edge id=":gneJ10_1" function="internal">
        <lane id=":gneJ10_1_0" index="0" allow="bicycle" speed="13.89" length="16.41" width="1.50" shape="198.08,-39.32 181.67,-39.07"/>
    </edge>
    <edge id=":gneJ10_2" function="internal">
        <lane id=":gneJ10_2_0" index="0" speed="7.27" length="3.55" shape="198.04,-41.67 195.27,-41.18 194.66,-40.77"/>
    </edge>
    <edge id=":gneJ10_3" function="internal">
        <lane id=":gneJ10_3_0" index="0" speed="13.89" length="16.40" shape="198.04,-41.67 181.64,-41.42"/>
    </edge>
    <edge id=":gneJ10_12" function="internal">
        <lane id=":gneJ10_12_0" index="0" speed="7.27" length="7.43" shape="194.66,-40.77 193.24,-39.81 191.97,-37.58 191.43,-34.47"/>
    </edge>
    <edge id=":gneJ10_4" function="internal">
        <lane id=":gneJ10_4_0" index="0" allow="bicycle" speed="13.89" length="16.38" width="1.50" shape="181.57,-46.97 197.95,-47.22"/>
    </edge>
    <edge id=":gneJ10_5" function="internal">
        <lane id=":gneJ10_5_0" index="0" allow="bicycle" speed="9.15" length="10.98" width="1.50" shape="181.57,-46.97 187.13,-46.24 191.01,-43.90 191.43,-43.17"/>
    </edge>
    <edge id=":gneJ10_6" function="internal">
        <lane id=":gneJ10_6_0" index="0" speed="13.89" length="16.39" shape="181.60,-44.62 197.99,-44.87"/>
    </edge>
    <edge id=":gneJ10_7" function="internal">
        <lane id=":gneJ10_7_0" index="0" speed="8.37" length="6.31" shape="181.60,-44.62 186.07,-44.03 187.61,-43.11"/>
    </edge>
    <edge id=":gneJ10_13" function="internal">
        <lane id=":gneJ10_13_0" index="0" allow="bicycle" speed="9.15" length="9.30" width="1.50" shape="191.43,-43.17 193.23,-39.94 193.78,-34.36"/>
    </edge>
    <edge id=":gneJ10_14" function="internal">
        <lane id=":gneJ10_14_0" index="0" speed="8.37" length="10.03" shape="187.61,-43.11 189.21,-42.15 190.99,-38.96 191.43,-34.47"/>
    </edge>
    <edge id=":gneJ10_8" function="internal">
        <lane id=":gneJ10_8_0" index="0" allow="bicycle" speed="5.50" length="7.00" width="1.50" shape="185.89,-34.72 185.70,-36.64 184.93,-38.01 183.59,-38.82 181.67,-39.07"/>
    </edge>
    <edge id=":gneJ10_9" function="internal">
        <lane id=":gneJ10_9_0" index="0" allow="bicycle" speed="9.39" length="19.54" width="1.50" shape="185.89,-34.72 186.85,-40.11 189.18,-43.99 192.88,-46.36 197.95,-47.22"/>
    </edge>
    <edge id=":gneJ10_10" function="internal">
        <lane id=":gneJ10_10_0" index="0" speed="6.96" length="10.95" shape="188.24,-34.61 187.94,-37.62 186.74,-39.76 184.64,-41.03 181.64,-41.42"/>
    </edge>
    <edge id=":gneJ10_11" function="internal">
        <lane id=":gneJ10_11_0" index="0" speed="8.64" length="15.92" shape="188.24,-34.61 189.02,-39.04 190.90,-42.22 193.89,-44.16 197.99,-44.87"/>
    </edge>
    <edge id=":gneJ12_0" function="internal">
        <lane id=":gneJ12_0_0" index="0" allow="bicycle" speed="4.55" length="4.36" width="1.50" shape="-22.96,-87.93 -24.14,-87.78 -25.00,-87.30 -25.54,-86.47 -25.75,-85.30"/>
    </edge>
    <edge id=":gneJ12_1" function="internal">
        <lane id=":gneJ12_1_0" index="0" speed="6.24" length="8.09" shape="-22.91,-90.28 -25.11,-90.01 -26.70,-89.10 -27.70,-87.56 -28.10,-85.39"/>
    </edge>
    <edge id=":gneJ12_2" function="internal">
        <lane id=":gneJ12_2_0" index="0" allow="bicycle" speed="8.62" length="16.89" width="1.50" shape="-33.65,-85.62 -32.81,-90.16 -30.72,-93.37 -27.39,-95.26 -22.81,-95.83"/>
    </edge>
    <edge id=":gneJ12_3" function="internal">
        <lane id=":gneJ12_3_0" index="0" speed="7.79" length="13.16" shape="-31.30,-85.52 -30.65,-89.06 -29.02,-91.56 -26.42,-93.04 -22.86,-93.48"/>
    </edge>
    <edge id=":gneJ13_0" function="internal">
        <lane id=":gneJ13_0_0" index="0" allow="bicycle" speed="7.51" length="8.43" width="1.50" shape="96.63,-88.30 95.30,-87.39 94.28,-85.87 93.59,-83.75 93.21,-81.01"/>
    </edge>
    <edge id=":gneJ13_1" function="internal">
        <lane id=":gneJ13_1_0" index="0" allow="bicycle" speed="13.89" length="15.74" width="1.50" shape="96.63,-88.30 92.28,-86.70 89.15,-86.02 85.92,-85.92 81.25,-86.04"/>
    </edge>
    <edge id=":gneJ13_2" function="internal">
        <lane id=":gneJ13_2_0" index="0" speed="8.69" length="2.95" shape="95.75,-90.48 93.82,-89.24 93.43,-88.72"/>
    </edge>
    <edge id=":gneJ13_3" function="internal">
        <lane id=":gneJ13_3_0" index="0" speed="13.89" length="14.80" shape="95.75,-90.48 91.66,-88.98 88.72,-88.36 85.68,-88.27 81.29,-88.39"/>
    </edge>
    <edge id=":gneJ13_12" function="internal">
        <lane id=":gneJ13_12_0" index="0" speed="8.69" length="8.11" shape="93.43,-88.72 92.36,-87.27 91.38,-84.59 90.87,-81.18"/>
    </edge>
    <edge id=":gneJ13_4" function="internal">
        <lane id=":gneJ13_4_0" index="0" allow="bicycle" speed="13.89" length="12.56" width="1.50" shape="81.39,-93.94 85.12,-93.83 87.70,-93.87 90.20,-94.36 93.68,-95.62"/>
    </edge>
    <edge id=":gneJ13_5" function="internal">
        <lane id=":gneJ13_5_0" index="0" allow="bicycle" speed="9.15" length="10.29" width="1.50" shape="81.39,-93.94 86.90,-93.04 90.71,-90.59 90.79,-90.43"/>
    </edge>
    <edge id=":gneJ13_6" function="internal">
        <lane id=":gneJ13_6_0" index="0" speed="13.89" length="13.51" shape="81.35,-91.59 85.36,-91.47 88.13,-91.53 90.82,-92.08 94.56,-93.44"/>
    </edge>
    <edge id=":gneJ13_7" function="internal">
        <lane id=":gneJ13_7_0" index="0" speed="8.38" length="6.25" shape="81.35,-91.59 85.79,-90.87 87.26,-89.92"/>
    </edge>
    <edge id=":gneJ13_13" function="internal">
        <lane id=":gneJ13_13_0" index="0" allow="bicycle" speed="9.15" length="9.93" width="1.50" shape="90.79,-90.43 92.81,-86.58 93.21,-81.01"/>
    </edge>
    <edge id=":gneJ13_14" function="internal">
        <lane id=":gneJ13_14_0" index="0" speed="8.38" length="10.04" shape="87.26,-89.92 88.85,-88.89 90.55,-85.66 90.87,-81.18"/>
    </edge>
    <edge id=":gneJ13_8" function="internal">
        <lane id=":gneJ13_8_0" index="0" allow="bicycle" speed="5.50" length="6.99" width="1.50" shape="85.33,-81.57 85.20,-83.49 84.47,-84.88 83.15,-85.73 81.25,-86.04"/>
    </edge>
    <edge id=":gneJ13_9" function="internal">
        <lane id=":gneJ13_9_0" index="0" allow="bicycle" speed="10.63" length="17.25" width="1.50" shape="85.33,-81.57 86.15,-86.57 87.81,-90.58 90.32,-93.60 93.68,-95.62"/>
    </edge>
    <edge id=":gneJ13_10" function="internal">
        <lane id=":gneJ13_10_0" index="0" speed="6.97" length="10.93" shape="87.68,-81.40 87.46,-84.41 86.32,-86.58 84.27,-87.90 81.29,-88.39"/>
    </edge>
    <edge id=":gneJ13_11" function="internal">
        <lane id=":gneJ13_11_0" index="0" speed="9.92" length="14.62" shape="87.68,-81.40 88.36,-85.73 89.74,-89.18 91.80,-91.75 94.56,-93.44"/>
    </edge>
    <edge id=":gneJ15_0" function="internal">
        <lane id=":gneJ15_0_0" index="0" allow="bicycle" speed="13.89" length="16.27" width="1.50" shape="347.09,-44.67 343.62,-44.23 340.24,-43.21 336.28,-42.17 331.02,-41.63"/>
        <lane id=":gneJ15_0_1" index="1" speed="13.89" length="16.27" shape="347.09,-44.67 330.99,-43.38"/>
    </edge>
    <edge id=":gneJ15_2" function="internal">
        <lane id=":gneJ15_2_0" index="0" speed="8.20" length="15.58" shape="347.09,-44.67 342.53,-45.26 339.31,-46.96 337.42,-49.77 336.87,-53.69"/>
    </edge>
    <edge id=":gneJ15_3" function="internal">
        <lane id=":gneJ15_3_0" index="0" allow="bicycle" speed="9.22" length="19.08" width="1.50" shape="343.02,-53.52 342.15,-48.40 339.86,-44.71 336.15,-42.45 331.02,-41.63"/>
    </edge>
    <edge id=":gneJ15_4" function="internal">
        <lane id=":gneJ15_4_0" index="0" allow="bicycle" speed="6.87" length="10.35" width="1.50" shape="341.52,-53.56 341.80,-50.45 342.82,-48.22 344.59,-46.88 347.10,-46.42"/>
    </edge>
    <edge id=":gneJ15_5" function="internal">
        <lane id=":gneJ15_5_0" index="0" speed="8.45" length="15.41" shape="340.67,-53.58 339.97,-49.44 338.12,-46.46 335.13,-44.64 330.98,-43.98"/>
    </edge>
    <edge id=":gneJ15_6" function="internal">
        <lane id=":gneJ15_6_0" index="0" allow="bicycle" speed="5.60" length="6.74" width="1.50" shape="330.88,-49.53 332.70,-49.82 334.01,-50.62 334.82,-51.92 335.13,-53.73"/>
    </edge>
    <edge id=":gneJ15_7" function="internal">
        <lane id=":gneJ15_7_0" index="0" speed="7.05" length="10.41" shape="330.92,-47.18 333.73,-47.63 335.75,-48.86 337.00,-50.87 337.47,-53.67"/>
    </edge>
    <edge id=":gneJ15_8" function="internal">
        <lane id=":gneJ15_8_0" index="0" allow="bicycle" speed="13.89" length="16.29" width="1.50" shape="330.91,-48.03 336.17,-47.84 340.18,-47.29 343.60,-46.70 347.10,-46.42"/>
    </edge>
    <edge id=":gneJ16_0" function="internal">
        <lane id=":gneJ16_0_0" index="0" allow="bicycle" speed="8.61" length="17.44" width="1.50" shape="335.25,-168.39 339.99,-167.69 343.33,-165.63 345.28,-162.22 345.83,-157.46"/>
    </edge>
    <edge id=":gneJ16_1" function="internal">
        <lane id=":gneJ16_1_0" index="0" speed="7.78" length="13.59" shape="335.23,-166.04 338.93,-165.49 341.54,-163.89 343.05,-161.24 343.48,-157.52"/>
    </edge>
    <edge id=":gneJ16_2" function="internal">
        <lane id=":gneJ16_2_0" index="0" allow="bicycle" speed="4.55" length="4.50" width="1.50" shape="337.94,-157.67 337.79,-158.90 337.29,-159.78 336.43,-160.32 335.20,-160.50"/>
    </edge>
    <edge id=":gneJ16_3" function="internal">
        <lane id=":gneJ16_3_0" index="0" speed="6.24" length="8.35" shape="340.29,-157.61 340.02,-159.89 339.09,-161.52 337.49,-162.51 335.22,-162.85"/>
    </edge>
    <edge id=":gneJ2_0" function="internal">
        <lane id=":gneJ2_0_0" index="0" allow="bicycle" speed="6.30" length="8.46" width="1.50" shape="89.36,8.91 86.98,9.19 85.22,10.09 84.09,11.61 83.58,13.74"/>
    </edge>
    <edge id=":gneJ2_1" function="internal">
        <lane id=":gneJ2_1_0" index="0" allow="bicycle" speed="13.89" length="17.71" width="1.50" shape="89.36,8.91 71.66,8.61"/>
    </edge>
    <edge id=":gneJ2_2" function="internal">
        <lane id=":gneJ2_2_0" index="0" allow="bicycle" speed="8.79" length="4.66" width="1.50" shape="89.36,8.91 84.89,7.60"/>
    </edge>
    <edge id=":gneJ2_3" function="internal">
        <lane id=":gneJ2_3_0" index="0" speed="7.61" length="4.17" shape="89.38,6.56 86.03,6.97 85.33,7.34"/>
    </edge>
    <edge id=":gneJ2_4" function="internal">
        <lane id=":gneJ2_4_0" index="0" speed="13.89" length="17.67" shape="89.38,6.56 71.72,6.26"/>
    </edge>
    <edge id=":gneJ2_5" function="internal">
        <lane id=":gneJ2_5_0" index="0" speed="8.34" length="6.51" shape="89.38,6.56 84.72,5.84 83.22,4.86"/>
    </edge>
    <edge id=":gneJ2_24" function="internal">
        <lane id=":gneJ2_24_0" index="0" allow="bicycle" speed="8.79" length="14.90" width="1.50" shape="84.89,7.60 80.95,4.34 78.27,-0.02 77.60,-4.63"/>
    </edge>
    <edge id=":gneJ2_25" function="internal">
        <lane id=":gneJ2_25_0" index="0" speed="7.61" length="7.89" shape="85.33,7.34 83.56,8.27 81.96,10.47 81.24,13.55"/>
    </edge>
    <edge id=":gneJ2_26" function="internal">
        <lane id=":gneJ2_26_0" index="0" speed="8.34" length="10.43" shape="83.22,4.86 81.58,3.79 79.99,0.40 79.93,-4.32"/>
    </edge>
    <edge id=":gneJ2_6" function="internal">
        <lane id=":gneJ2_6_0" index="0" allow="bicycle" speed="5.44" length="7.17" width="1.50" shape="85.43,-3.60 85.46,-1.60 86.13,-0.16 87.46,0.71 89.44,1.01"/>
    </edge>
    <edge id=":gneJ2_7" function="internal">
        <lane id=":gneJ2_7_0" index="0" allow="bicycle" speed="13.89" length="17.44" width="1.50" shape="85.43,-3.60 83.58,13.74"/>
    </edge>
    <edge id=":gneJ2_8" function="internal">
        <lane id=":gneJ2_8_0" index="0" allow="bicycle" speed="9.60" length="19.71" width="1.50" shape="85.43,-3.60 83.79,0.90 80.52,4.84 76.25,7.62 71.66,8.61"/>
    </edge>
    <edge id=":gneJ2_9" function="internal">
        <lane id=":gneJ2_9_0" index="0" speed="6.92" length="11.31" shape="83.10,-3.91 83.14,-0.75 84.21,1.51 86.30,2.88 89.41,3.36"/>
    </edge>
    <edge id=":gneJ2_10" function="internal">
        <lane id=":gneJ2_10_0" index="0" speed="13.89" length="17.56" shape="83.10,-3.91 81.24,13.55"/>
    </edge>
    <edge id=":gneJ2_11" function="internal">
        <lane id=":gneJ2_11_0" index="0" speed="9.07" length="17.03" shape="83.10,-3.91 81.88,0.64 79.57,3.84 76.18,5.72 71.72,6.26"/>
    </edge>
    <edge id=":gneJ2_12" function="internal">
        <lane id=":gneJ2_12_0" index="0" allow="bicycle" speed="6.48" length="8.75" width="1.50" shape="71.86,0.71 74.10,0.42 75.80,-0.56 76.97,-2.25 77.60,-4.63"/>
    </edge>
    <edge id=":gneJ2_13" function="internal">
        <lane id=":gneJ2_13_0" index="0" allow="bicycle" speed="13.89" length="17.58" width="1.50" shape="71.86,0.71 89.44,1.01"/>
    </edge>
    <edge id=":gneJ2_14" function="internal">
        <lane id=":gneJ2_14_0" index="0" allow="bicycle" speed="8.87" length="4.38" width="1.50" shape="71.86,0.71 76.06,1.94"/>
    </edge>
    <edge id=":gneJ2_15" function="internal">
        <lane id=":gneJ2_15_0" index="0" speed="7.77" length="4.00" shape="71.80,3.06 74.98,2.66 75.67,2.27"/>
    </edge>
    <edge id=":gneJ2_16" function="internal">
        <lane id=":gneJ2_16_0" index="0" speed="13.89" length="17.62" shape="71.80,3.06 89.41,3.36"/>
    </edge>
    <edge id=":gneJ2_17" function="internal">
        <lane id=":gneJ2_17_0" index="0" speed="8.38" length="6.21" shape="71.80,3.06 76.24,3.81 77.66,4.75"/>
    </edge>
    <edge id=":gneJ2_27" function="internal">
        <lane id=":gneJ2_27_0" index="0" allow="bicycle" speed="8.87" length="14.63" width="1.50" shape="76.06,1.94 76.22,1.99 80.08,5.10 82.77,9.27 83.58,13.74"/>
    </edge>
    <edge id=":gneJ2_28" function="internal">
        <lane id=":gneJ2_28_0" index="0" speed="7.77" length="8.25" shape="75.67,2.27 77.40,1.30 79.05,-1.03 79.93,-4.32"/>
    </edge>
    <edge id=":gneJ2_29" function="internal">
        <lane id=":gneJ2_29_0" index="0" speed="8.38" length="10.10" shape="77.66,4.75 79.29,5.81 80.96,9.06 81.24,13.55"/>
    </edge>
    <edge id=":gneJ2_18" function="internal">
        <lane id=":gneJ2_18_0" index="0" allow="bicycle" speed="5.50" length="7.00" width="1.50" shape="75.71,13.11 75.59,11.18 74.87,9.79 73.56,8.93 71.66,8.61"/>
    </edge>
    <edge id=":gneJ2_19" function="internal">
        <lane id=":gneJ2_19_0" index="0" allow="bicycle" speed="13.89" length="17.84" width="1.50" shape="75.71,13.11 77.60,-4.63"/>
    </edge>
    <edge id=":gneJ2_20" function="internal">
        <lane id=":gneJ2_20_0" index="0" allow="bicycle" speed="9.45" length="19.66" width="1.50" shape="75.71,13.11 77.20,8.65 80.47,4.76 84.79,2.02 89.44,1.01"/>
    </edge>
    <edge id=":gneJ2_21" function="internal">
        <lane id=":gneJ2_21_0" index="0" speed="6.96" length="10.94" shape="78.05,13.30 77.86,10.28 76.74,8.10 74.69,6.76 71.72,6.26"/>
    </edge>
    <edge id=":gneJ2_22" function="internal">
        <lane id=":gneJ2_22_0" index="0" speed="13.89" length="17.72" shape="78.05,13.30 79.93,-4.32"/>
    </edge>
    <edge id=":gneJ2_23" function="internal">
        <lane id=":gneJ2_23_0" index="0" speed="8.93" length="16.96" shape="78.05,13.30 79.06,8.91 81.29,5.79 84.75,3.94 89.41,3.36"/>
    </edge>
    <edge id=":gneJ3_0" function="internal">
        <lane id=":gneJ3_0_0" index="0" allow="bicycle" speed="6.26" length="8.58" width="1.50" shape="-25.62,6.14 -27.65,6.46 -29.16,7.53 -30.13,9.35 -30.58,11.93"/>
    </edge>
    <edge id=":gneJ3_1" function="internal">
        <lane id=":gneJ3_1_0" index="0" allow="bicycle" speed="13.89" length="17.44" width="1.50" shape="-25.62,6.14 -30.79,6.05 -34.33,6.16 -37.86,6.54 -42.98,7.25"/>
    </edge>
    <edge id=":gneJ3_2" function="internal">
        <lane id=":gneJ3_2_0" index="0" allow="bicycle" speed="8.91" length="18.80" width="1.50" shape="-25.62,6.14 -29.95,4.90 -33.80,1.88 -36.51,-2.20 -37.40,-6.62"/>
    </edge>
    <edge id=":gneJ3_3" function="internal">
        <lane id=":gneJ3_3_0" index="0" speed="7.58" length="12.26" shape="-25.56,3.79 -28.59,4.23 -30.83,5.70 -32.27,8.22 -32.92,11.78"/>
    </edge>
    <edge id=":gneJ3_4" function="internal">
        <lane id=":gneJ3_4_0" index="0" speed="13.89" length="17.83" shape="-25.56,3.79 -30.85,3.70 -34.47,3.81 -38.08,4.19 -43.31,4.93"/>
    </edge>
    <edge id=":gneJ3_5" function="internal">
        <lane id=":gneJ3_5_0" index="0" speed="8.39" length="16.07" shape="-25.56,3.79 -29.92,3.06 -32.96,1.10 -34.67,-2.09 -35.06,-6.49"/>
    </edge>
    <edge id=":gneJ3_6" function="internal">
        <lane id=":gneJ3_6_0" index="0" allow="bicycle" speed="5.53" length="6.93" width="1.50" shape="-29.52,-6.19 -29.35,-4.29 -28.61,-2.92 -27.30,-2.07 -25.42,-1.75"/>
    </edge>
    <edge id=":gneJ3_7" function="internal">
        <lane id=":gneJ3_7_0" index="0" allow="bicycle" speed="13.89" length="18.15" width="1.50" shape="-29.52,-6.19 -30.58,11.93"/>
    </edge>
    <edge id=":gneJ3_8" function="internal">
        <lane id=":gneJ3_8_0" index="0" allow="bicycle" speed="10.08" length="3.63" width="1.50" shape="-29.52,-6.19 -30.58,-2.71"/>
    </edge>
    <edge id=":gneJ3_9" function="internal">
        <lane id=":gneJ3_9_0" index="0" speed="6.98" length="3.76" shape="-31.86,-6.32 -31.60,-3.36 -31.23,-2.66"/>
    </edge>
    <edge id=":gneJ3_10" function="internal">
        <lane id=":gneJ3_10_0" index="0" speed="13.89" length="18.13" shape="-31.86,-6.32 -32.92,11.78"/>
    </edge>
    <edge id=":gneJ3_11" function="internal">
        <lane id=":gneJ3_11_0" index="0" speed="9.55" length="5.20" shape="-31.86,-6.32 -32.78,-1.98 -33.20,-1.34"/>
    </edge>
    <edge id=":gneJ3_24" function="internal">
        <lane id=":gneJ3_24_0" index="0" allow="bicycle" speed="10.08" length="16.53" width="1.50" shape="-30.58,-2.71 -30.87,-1.76 -34.01,2.38 -38.28,5.60 -42.98,7.25"/>
    </edge>
    <edge id=":gneJ3_25" function="internal">
        <lane id=":gneJ3_25_0" index="0" speed="6.98" length="7.04" shape="-31.23,-2.66 -30.45,-1.22 -28.41,0.10 -25.48,0.60"/>
    </edge>
    <edge id=":gneJ3_26" function="internal">
        <lane id=":gneJ3_26_0" index="0" speed="9.55" length="12.41" shape="-33.20,-1.34 -34.99,1.34 -38.50,3.64 -43.31,4.93"/>
    </edge>
    <edge id=":gneJ3_12" function="internal">
        <lane id=":gneJ3_12_0" index="0" allow="bicycle" speed="7.12" length="9.86" width="1.50" shape="-44.09,-0.59 -41.27,-1.30 -39.22,-2.54 -37.93,-4.31 -37.40,-6.62"/>
    </edge>
    <edge id=":gneJ3_13" function="internal">
        <lane id=":gneJ3_13_0" index="0" allow="bicycle" speed="13.89" length="18.75" width="1.50" shape="-44.09,-0.59 -38.58,-1.35 -34.79,-1.74 -30.98,-1.85 -25.42,-1.75"/>
    </edge>
    <edge id=":gneJ3_14" function="internal">
        <lane id=":gneJ3_14_0" index="0" allow="bicycle" speed="8.70" length="20.21" width="1.50" shape="-44.09,-0.59 -39.36,0.15 -34.91,3.05 -31.67,7.27 -30.58,11.93"/>
    </edge>
    <edge id=":gneJ3_15" function="internal">
        <lane id=":gneJ3_15_0" index="0" speed="8.31" length="13.13" shape="-43.76,1.74 -40.10,0.79 -37.43,-0.90 -35.75,-3.32 -35.06,-6.49"/>
    </edge>
    <edge id=":gneJ3_16" function="internal">
        <lane id=":gneJ3_16_0" index="0" speed="13.89" length="18.36" shape="-43.76,1.74 -38.37,0.99 -34.65,0.61 -30.93,0.50 -25.48,0.60"/>
    </edge>
    <edge id=":gneJ3_17" function="internal">
        <lane id=":gneJ3_17_0" index="0" speed="8.31" length="17.76" shape="-43.76,1.74 -38.75,1.76 -35.27,3.44 -33.33,6.78 -32.92,11.78"/>
    </edge>
    <edge id=":gneJ3_18" function="internal">
        <lane id=":gneJ3_18_0" index="0" allow="bicycle" speed="5.39" length="7.40" width="1.50" shape="-38.46,11.43 -38.63,9.35 -39.44,7.96 -40.89,7.26 -42.98,7.25"/>
    </edge>
    <edge id=":gneJ3_19" function="internal">
        <lane id=":gneJ3_19_0" index="0" allow="bicycle" speed="13.89" length="18.08" width="1.50" shape="-38.46,11.43 -37.40,-6.62"/>
    </edge>
    <edge id=":gneJ3_20" function="internal">
        <lane id=":gneJ3_20_0" index="0" allow="bicycle" speed="9.40" length="4.13" width="1.50" shape="-38.46,11.43 -37.33,7.47"/>
    </edge>
    <edge id=":gneJ3_21" function="internal">
        <lane id=":gneJ3_21_0" index="0" speed="6.88" length="4.03" shape="-36.12,11.58 -36.39,8.26 -36.74,7.66"/>
    </edge>
    <edge id=":gneJ3_22" function="internal">
        <lane id=":gneJ3_22_0" index="0" speed="13.89" length="18.10" shape="-36.12,11.58 -35.06,-6.49"/>
    </edge>
    <edge id=":gneJ3_23" function="internal">
        <lane id=":gneJ3_23_0" index="0" speed="8.89" length="6.09" shape="-36.12,11.58 -35.19,6.68 -34.62,5.73"/>
    </edge>
    <edge id=":gneJ3_27" function="internal">
        <lane id=":gneJ3_27_0" index="0" allow="bicycle" speed="9.40" length="15.83" width="1.50" shape="-37.33,7.47 -37.12,6.75 -34.09,2.47 -29.98,-0.63 -25.42,-1.75"/>
    </edge>
    <edge id=":gneJ3_28" function="internal">
        <lane id=":gneJ3_28_0" index="0" speed="6.88" length="7.75" shape="-36.74,7.66 -37.68,6.05 -39.98,4.94 -43.31,4.93"/>
    </edge>
    <edge id=":gneJ3_29" function="internal">
        <lane id=":gneJ3_29_0" index="0" speed="8.89" length="11.19" shape="-34.62,5.73 -33.11,3.22 -29.87,1.19 -25.48,0.60"/>
    </edge>
    <edge id=":gneJ4_0" function="internal">
        <lane id=":gneJ4_0_0" index="0" speed="13.89" length="16.96" shape="-114.57,63.08 -131.52,63.27"/>
        <lane id=":gneJ4_0_1" index="1" speed="13.89" length="16.96" shape="-114.60,59.88 -131.56,60.07"/>
    </edge>
    <edge id=":gneJ4_2" function="internal">
        <lane id=":gneJ4_2_0" index="0" speed="8.22" length="18.40" shape="-114.60,59.88 -119.88,59.19 -123.16,57.01 -124.44,53.33 -123.72,48.14"/>
    </edge>
    <edge id=":gneJ4_3" function="internal">
        <lane id=":gneJ4_3_0" index="0" speed="5.94" length="9.00" shape="-120.66,49.03 -120.77,51.01 -119.81,52.40 -117.78,53.23 -114.66,53.48"/>
    </edge>
    <edge id=":gneJ4_4" function="internal">
        <lane id=":gneJ4_4_0" index="0" speed="9.73" length="16.67" shape="-120.66,49.03 -122.52,53.82 -124.96,57.26 -127.97,59.34 -131.56,60.07"/>
    </edge>
    <edge id=":gneJ4_5" function="internal">
        <lane id=":gneJ4_5_0" index="0" allow="bicycle" speed="7.07" length="8.39" width="1.50" shape="-131.65,52.82 -129.74,52.47 -128.16,51.46 -126.90,49.80 -125.98,47.49"/>
    </edge>
    <edge id=":gneJ4_6" function="internal">
        <lane id=":gneJ4_6_0" index="0" speed="7.81" length="10.43" shape="-131.64,53.67 -128.77,53.29 -126.49,52.25 -124.81,50.53 -123.72,48.14"/>
    </edge>
    <edge id=":gneJ4_7" function="internal">
        <lane id=":gneJ4_7_0" index="0" speed="13.89" length="16.97" shape="-131.60,56.87 -114.63,56.68"/>
    </edge>
    <edge id=":gneJ5_0" function="internal">
        <lane id=":gneJ5_0_0" index="0" speed="13.89" length="16.45" shape="193.82,66.59 177.36,66.24"/>
        <lane id=":gneJ5_0_1" index="1" speed="13.89" length="16.45" shape="193.88,63.39 177.43,63.04"/>
    </edge>
    <edge id=":gneJ5_2" function="internal">
        <lane id=":gneJ5_2_0" index="0" speed="8.34" length="15.79" shape="193.88,63.39 189.53,62.71 186.48,60.83 184.74,57.76 184.30,53.50"/>
    </edge>
    <edge id=":gneJ5_3" function="internal">
        <lane id=":gneJ5_3_0" index="0" speed="6.15" length="8.10" shape="187.50,53.64 187.85,55.06 189.05,56.09 191.10,56.74 194.00,57.00"/>
    </edge>
    <edge id=":gneJ5_4" function="internal">
        <lane id=":gneJ5_4_0" index="0" speed="8.43" length="15.63" shape="187.50,53.64 186.71,57.84 184.77,60.81 181.68,62.54 177.43,63.04"/>
    </edge>
    <edge id=":gneJ5_5" function="internal">
        <lane id=":gneJ5_5_0" index="0" allow="bicycle" speed="5.29" length="5.53" width="1.50" shape="177.61,55.79 179.47,55.68 180.81,55.25 181.64,54.48 181.96,53.39"/>
    </edge>
    <edge id=":gneJ5_6" function="internal">
        <lane id=":gneJ5_6_0" index="0" speed="6.27" length="8.18" shape="177.59,56.64 180.47,56.51 182.55,55.94 183.83,54.93 184.30,53.50"/>
    </edge>
    <edge id=":gneJ5_7" function="internal">
        <lane id=":gneJ5_7_0" index="0" speed="13.89" length="16.43" shape="177.51,59.84 193.94,60.20"/>
    </edge>
    <edge id=":gneJ6_0" function="internal">
        <lane id=":gneJ6_0_0" index="0" allow="bicycle" speed="5.68" length="7.03" width="1.50" shape="-23.17,-40.50 -25.14,-40.29 -26.59,-39.55 -27.50,-38.27 -27.87,-36.45"/>
    </edge>
    <edge id=":gneJ6_1" function="internal">
        <lane id=":gneJ6_1_0" index="0" allow="bicycle" speed="9.17" length="19.79" width="1.50" shape="-23.17,-40.50 -28.53,-41.41 -32.29,-43.81 -34.44,-47.72 -34.99,-53.13"/>
    </edge>
    <edge id=":gneJ6_2" function="internal">
        <lane id=":gneJ6_2_0" index="0" speed="7.11" length="10.74" shape="-23.11,-42.85 -26.09,-42.52 -28.27,-41.37 -29.65,-39.39 -30.22,-36.58"/>
    </edge>
    <edge id=":gneJ6_3" function="internal">
        <lane id=":gneJ6_3_0" index="0" speed="8.40" length="15.96" shape="-23.11,-42.85 -27.44,-43.58 -30.46,-45.52 -32.20,-48.67 -32.64,-53.03"/>
    </edge>
    <edge id=":gneJ6_4" function="internal">
        <lane id=":gneJ6_4_0" index="0" allow="bicycle" speed="5.54" length="6.90" width="1.50" shape="-27.10,-52.80 -26.90,-50.92 -26.15,-49.55 -24.85,-48.72 -22.98,-48.40"/>
    </edge>
    <edge id=":gneJ6_5" function="internal">
        <lane id=":gneJ6_5_0" index="0" allow="bicycle" speed="13.89" length="16.37" width="1.50" shape="-27.10,-52.80 -27.87,-36.45"/>
    </edge>
    <edge id=":gneJ6_6" function="internal">
        <lane id=":gneJ6_6_0" index="0" speed="6.99" length="3.74" shape="-29.44,-52.90 -29.15,-49.96 -28.77,-49.27"/>
    </edge>
    <edge id=":gneJ6_7" function="internal">
        <lane id=":gneJ6_7_0" index="0" speed="13.89" length="16.34" shape="-29.44,-52.90 -30.22,-36.58"/>